data_image0
_cell_length_a       36.1
_cell_length_b       36.1
_cell_length_c       36.1
_cell_angle_alpha    90
_cell_angle_beta     90
_cell_angle_gamma    90

_symmetry_space_group_name_H-M    "P 1"
_symmetry_int_tables_number       1

loop_
  _symmetry_equiv_pos_as_xyz
  'x, y, z'

loop_
  _atom_site_label
  _atom_site_occupancy
  _atom_site_fract_x
  _atom_site_fract_y
  _atom_site_fract_z
  _atom_site_thermal_displace_type
  _atom_site_B_iso_or_equiv
  _atom_site_type_symbol
  Cu1      1.0000 0.00000  0.00000  0.00000  Biso   1.000  Cu
  Cu2      1.0000 0.05000  0.05000  0.00000  Biso   1.000  Cu
  Cu3      1.0000 0.05000  0.00000  0.05000  Biso   1.000  Cu
  Cu4      1.0000 0.00000  0.05000  0.05000  Biso   1.000  Cu
  Cu5      1.0000 0.10000  0.00000  0.00000  Biso   1.000  Cu
  Cu6      1.0000 0.15000  0.05000  0.00000  Biso   1.000  Cu
  Cu7      1.0000 0.15000  0.00000  0.05000  Biso   1.000  Cu
  Cu8      1.0000 0.10000  0.05000  0.05000  Biso   1.000  Cu
  Cu9      1.0000 0.20000  0.00000  0.00000  Biso   1.000  Cu
  Cu10     1.0000 0.25000  0.05000  0.00000  Biso   1.000  Cu
  Cu11     1.0000 0.25000  0.00000  0.05000  Biso   1.000  Cu
  Cu12     1.0000 0.20000  0.05000  0.05000  Biso   1.000  Cu
  Cu13     1.0000 0.30000  0.00000  0.00000  Biso   1.000  Cu
  Cu14     1.0000 0.35000  0.05000  0.00000  Biso   1.000  Cu
  Cu15     1.0000 0.35000  0.00000  0.05000  Biso   1.000  Cu
  Cu16     1.0000 0.30000  0.05000  0.05000  Biso   1.000  Cu
  Cu17     1.0000 0.40000  0.00000  0.00000  Biso   1.000  Cu
  Cu18     1.0000 0.45000  0.05000  0.00000  Biso   1.000  Cu
  Cu19     1.0000 0.45000  0.00000  0.05000  Biso   1.000  Cu
  Cu20     1.0000 0.40000  0.05000  0.05000  Biso   1.000  Cu
  Cu21     1.0000 0.50000  0.00000  0.00000  Biso   1.000  Cu
  Cu22     1.0000 0.55000  0.05000  0.00000  Biso   1.000  Cu
  Cu23     1.0000 0.55000  0.00000  0.05000  Biso   1.000  Cu
  Cu24     1.0000 0.50000  0.05000  0.05000  Biso   1.000  Cu
  Cu25     1.0000 0.60000  0.00000  0.00000  Biso   1.000  Cu
  Cu26     1.0000 0.65000  0.05000  0.00000  Biso   1.000  Cu
  Cu27     1.0000 0.65000  0.00000  0.05000  Biso   1.000  Cu
  Cu28     1.0000 0.60000  0.05000  0.05000  Biso   1.000  Cu
  Cu29     1.0000 0.70000  0.00000  0.00000  Biso   1.000  Cu
  Cu30     1.0000 0.75000  0.05000  0.00000  Biso   1.000  Cu
  Cu31     1.0000 0.75000  0.00000  0.05000  Biso   1.000  Cu
  Cu32     1.0000 0.70000  0.05000  0.05000  Biso   1.000  Cu
  Cu33     1.0000 0.80000  0.00000  0.00000  Biso   1.000  Cu
  Cu34     1.0000 0.85000  0.05000  0.00000  Biso   1.000  Cu
  Cu35     1.0000 0.85000  0.00000  0.05000  Biso   1.000  Cu
  Cu36     1.0000 0.80000  0.05000  0.05000  Biso   1.000  Cu
  Cu37     1.0000 0.90000  0.00000  0.00000  Biso   1.000  Cu
  Cu38     1.0000 0.95000  0.05000  0.00000  Biso   1.000  Cu
  Cu39     1.0000 0.95000  0.00000  0.05000  Biso   1.000  Cu
  Cu40     1.0000 0.90000  0.05000  0.05000  Biso   1.000  Cu
  Cu41     1.0000 0.00000  0.10000  0.00000  Biso   1.000  Cu
  Cu42     1.0000 0.05000  0.15000  0.00000  Biso   1.000  Cu
  Cu43     1.0000 0.05000  0.10000  0.05000  Biso   1.000  Cu
  Cu44     1.0000 0.00000  0.15000  0.05000  Biso   1.000  Cu
  Cu45     1.0000 0.10000  0.10000  0.00000  Biso   1.000  Cu
  Cu46     1.0000 0.15000  0.15000  0.00000  Biso   1.000  Cu
  Cu47     1.0000 0.15000  0.10000  0.05000  Biso   1.000  Cu
  Cu48     1.0000 0.10000  0.15000  0.05000  Biso   1.000  Cu
  Cu49     1.0000 0.20000  0.10000  0.00000  Biso   1.000  Cu
  Cu50     1.0000 0.25000  0.15000  0.00000  Biso   1.000  Cu
  Cu51     1.0000 0.25000  0.10000  0.05000  Biso   1.000  Cu
  Cu52     1.0000 0.20000  0.15000  0.05000  Biso   1.000  Cu
  Cu53     1.0000 0.30000  0.10000  0.00000  Biso   1.000  Cu
  Cu54     1.0000 0.35000  0.15000  0.00000  Biso   1.000  Cu
  Cu55     1.0000 0.35000  0.10000  0.05000  Biso   1.000  Cu
  Cu56     1.0000 0.30000  0.15000  0.05000  Biso   1.000  Cu
  Cu57     1.0000 0.40000  0.10000  0.00000  Biso   1.000  Cu
  Cu58     1.0000 0.45000  0.15000  0.00000  Biso   1.000  Cu
  Cu59     1.0000 0.45000  0.10000  0.05000  Biso   1.000  Cu
  Cu60     1.0000 0.40000  0.15000  0.05000  Biso   1.000  Cu
  Cu61     1.0000 0.50000  0.10000  0.00000  Biso   1.000  Cu
  Cu62     1.0000 0.55000  0.15000  0.00000  Biso   1.000  Cu
  Cu63     1.0000 0.55000  0.10000  0.05000  Biso   1.000  Cu
  Cu64     1.0000 0.50000  0.15000  0.05000  Biso   1.000  Cu
  Cu65     1.0000 0.60000  0.10000  0.00000  Biso   1.000  Cu
  Cu66     1.0000 0.65000  0.15000  0.00000  Biso   1.000  Cu
  Cu67     1.0000 0.65000  0.10000  0.05000  Biso   1.000  Cu
  Cu68     1.0000 0.60000  0.15000  0.05000  Biso   1.000  Cu
  Cu69     1.0000 0.70000  0.10000  0.00000  Biso   1.000  Cu
  Cu70     1.0000 0.75000  0.15000  0.00000  Biso   1.000  Cu
  Cu71     1.0000 0.75000  0.10000  0.05000  Biso   1.000  Cu
  Cu72     1.0000 0.70000  0.15000  0.05000  Biso   1.000  Cu
  Cu73     1.0000 0.80000  0.10000  0.00000  Biso   1.000  Cu
  Cu74     1.0000 0.85000  0.15000  0.00000  Biso   1.000  Cu
  Cu75     1.0000 0.85000  0.10000  0.05000  Biso   1.000  Cu
  Cu76     1.0000 0.80000  0.15000  0.05000  Biso   1.000  Cu
  Cu77     1.0000 0.90000  0.10000  0.00000  Biso   1.000  Cu
  Cu78     1.0000 0.95000  0.15000  0.00000  Biso   1.000  Cu
  Cu79     1.0000 0.95000  0.10000  0.05000  Biso   1.000  Cu
  Cu80     1.0000 0.90000  0.15000  0.05000  Biso   1.000  Cu
  Cu81     1.0000 0.00000  0.20000  0.00000  Biso   1.000  Cu
  Cu82     1.0000 0.05000  0.25000  0.00000  Biso   1.000  Cu
  Cu83     1.0000 0.05000  0.20000  0.05000  Biso   1.000  Cu
  Cu84     1.0000 0.00000  0.25000  0.05000  Biso   1.000  Cu
  Cu85     1.0000 0.10000  0.20000  0.00000  Biso   1.000  Cu
  Cu86     1.0000 0.15000  0.25000  0.00000  Biso   1.000  Cu
  Cu87     1.0000 0.15000  0.20000  0.05000  Biso   1.000  Cu
  Cu88     1.0000 0.10000  0.25000  0.05000  Biso   1.000  Cu
  Cu89     1.0000 0.20000  0.20000  0.00000  Biso   1.000  Cu
  Cu90     1.0000 0.25000  0.25000  0.00000  Biso   1.000  Cu
  Cu91     1.0000 0.25000  0.20000  0.05000  Biso   1.000  Cu
  Cu92     1.0000 0.20000  0.25000  0.05000  Biso   1.000  Cu
  Cu93     1.0000 0.30000  0.20000  0.00000  Biso   1.000  Cu
  Cu94     1.0000 0.35000  0.25000  0.00000  Biso   1.000  Cu
  Cu95     1.0000 0.35000  0.20000  0.05000  Biso   1.000  Cu
  Cu96     1.0000 0.30000  0.25000  0.05000  Biso   1.000  Cu
  Cu97     1.0000 0.40000  0.20000  0.00000  Biso   1.000  Cu
  Cu98     1.0000 0.45000  0.25000  0.00000  Biso   1.000  Cu
  Cu99     1.0000 0.45000  0.20000  0.05000  Biso   1.000  Cu
  Cu100    1.0000 0.40000  0.25000  0.05000  Biso   1.000  Cu
  Cu101    1.0000 0.50000  0.20000  0.00000  Biso   1.000  Cu
  Cu102    1.0000 0.55000  0.25000  0.00000  Biso   1.000  Cu
  Cu103    1.0000 0.55000  0.20000  0.05000  Biso   1.000  Cu
  Cu104    1.0000 0.50000  0.25000  0.05000  Biso   1.000  Cu
  Cu105    1.0000 0.60000  0.20000  0.00000  Biso   1.000  Cu
  Cu106    1.0000 0.65000  0.25000  0.00000  Biso   1.000  Cu
  Cu107    1.0000 0.65000  0.20000  0.05000  Biso   1.000  Cu
  Cu108    1.0000 0.60000  0.25000  0.05000  Biso   1.000  Cu
  Cu109    1.0000 0.70000  0.20000  0.00000  Biso   1.000  Cu
  Cu110    1.0000 0.75000  0.25000  0.00000  Biso   1.000  Cu
  Cu111    1.0000 0.75000  0.20000  0.05000  Biso   1.000  Cu
  Cu112    1.0000 0.70000  0.25000  0.05000  Biso   1.000  Cu
  Cu113    1.0000 0.80000  0.20000  0.00000  Biso   1.000  Cu
  Cu114    1.0000 0.85000  0.25000  0.00000  Biso   1.000  Cu
  Cu115    1.0000 0.85000  0.20000  0.05000  Biso   1.000  Cu
  Cu116    1.0000 0.80000  0.25000  0.05000  Biso   1.000  Cu
  Cu117    1.0000 0.90000  0.20000  0.00000  Biso   1.000  Cu
  Cu118    1.0000 0.95000  0.25000  0.00000  Biso   1.000  Cu
  Cu119    1.0000 0.95000  0.20000  0.05000  Biso   1.000  Cu
  Cu120    1.0000 0.90000  0.25000  0.05000  Biso   1.000  Cu
  Cu121    1.0000 0.00000  0.30000  0.00000  Biso   1.000  Cu
  Cu122    1.0000 0.05000  0.35000  0.00000  Biso   1.000  Cu
  Cu123    1.0000 0.05000  0.30000  0.05000  Biso   1.000  Cu
  Cu124    1.0000 0.00000  0.35000  0.05000  Biso   1.000  Cu
  Cu125    1.0000 0.10000  0.30000  0.00000  Biso   1.000  Cu
  Cu126    1.0000 0.15000  0.35000  0.00000  Biso   1.000  Cu
  Cu127    1.0000 0.15000  0.30000  0.05000  Biso   1.000  Cu
  Cu128    1.0000 0.10000  0.35000  0.05000  Biso   1.000  Cu
  Cu129    1.0000 0.20000  0.30000  0.00000  Biso   1.000  Cu
  Cu130    1.0000 0.25000  0.35000  0.00000  Biso   1.000  Cu
  Cu131    1.0000 0.25000  0.30000  0.05000  Biso   1.000  Cu
  Cu132    1.0000 0.20000  0.35000  0.05000  Biso   1.000  Cu
  Cu133    1.0000 0.30000  0.30000  0.00000  Biso   1.000  Cu
  Cu134    1.0000 0.35000  0.35000  0.00000  Biso   1.000  Cu
  Cu135    1.0000 0.35000  0.30000  0.05000  Biso   1.000  Cu
  Cu136    1.0000 0.30000  0.35000  0.05000  Biso   1.000  Cu
  Cu137    1.0000 0.40000  0.30000  0.00000  Biso   1.000  Cu
  Cu138    1.0000 0.45000  0.35000  0.00000  Biso   1.000  Cu
  Cu139    1.0000 0.45000  0.30000  0.05000  Biso   1.000  Cu
  Cu140    1.0000 0.40000  0.35000  0.05000  Biso   1.000  Cu
  Cu141    1.0000 0.50000  0.30000  0.00000  Biso   1.000  Cu
  Cu142    1.0000 0.55000  0.35000  0.00000  Biso   1.000  Cu
  Cu143    1.0000 0.55000  0.30000  0.05000  Biso   1.000  Cu
  Cu144    1.0000 0.50000  0.35000  0.05000  Biso   1.000  Cu
  Cu145    1.0000 0.60000  0.30000  0.00000  Biso   1.000  Cu
  Cu146    1.0000 0.65000  0.35000  0.00000  Biso   1.000  Cu
  Cu147    1.0000 0.65000  0.30000  0.05000  Biso   1.000  Cu
  Cu148    1.0000 0.60000  0.35000  0.05000  Biso   1.000  Cu
  Cu149    1.0000 0.70000  0.30000  0.00000  Biso   1.000  Cu
  Cu150    1.0000 0.75000  0.35000  0.00000  Biso   1.000  Cu
  Cu151    1.0000 0.75000  0.30000  0.05000  Biso   1.000  Cu
  Cu152    1.0000 0.70000  0.35000  0.05000  Biso   1.000  Cu
  Cu153    1.0000 0.80000  0.30000  0.00000  Biso   1.000  Cu
  Cu154    1.0000 0.85000  0.35000  0.00000  Biso   1.000  Cu
  Cu155    1.0000 0.85000  0.30000  0.05000  Biso   1.000  Cu
  Cu156    1.0000 0.80000  0.35000  0.05000  Biso   1.000  Cu
  Cu157    1.0000 0.90000  0.30000  0.00000  Biso   1.000  Cu
  Cu158    1.0000 0.95000  0.35000  0.00000  Biso   1.000  Cu
  Cu159    1.0000 0.95000  0.30000  0.05000  Biso   1.000  Cu
  Cu160    1.0000 0.90000  0.35000  0.05000  Biso   1.000  Cu
  Cu161    1.0000 0.00000  0.40000  0.00000  Biso   1.000  Cu
  Cu162    1.0000 0.05000  0.45000  0.00000  Biso   1.000  Cu
  Cu163    1.0000 0.05000  0.40000  0.05000  Biso   1.000  Cu
  Cu164    1.0000 0.00000  0.45000  0.05000  Biso   1.000  Cu
  Cu165    1.0000 0.10000  0.40000  0.00000  Biso   1.000  Cu
  Cu166    1.0000 0.15000  0.45000  0.00000  Biso   1.000  Cu
  Cu167    1.0000 0.15000  0.40000  0.05000  Biso   1.000  Cu
  Cu168    1.0000 0.10000  0.45000  0.05000  Biso   1.000  Cu
  Cu169    1.0000 0.20000  0.40000  0.00000  Biso   1.000  Cu
  Cu170    1.0000 0.25000  0.45000  0.00000  Biso   1.000  Cu
  Cu171    1.0000 0.25000  0.40000  0.05000  Biso   1.000  Cu
  Cu172    1.0000 0.20000  0.45000  0.05000  Biso   1.000  Cu
  Cu173    1.0000 0.30000  0.40000  0.00000  Biso   1.000  Cu
  Cu174    1.0000 0.35000  0.45000  0.00000  Biso   1.000  Cu
  Cu175    1.0000 0.35000  0.40000  0.05000  Biso   1.000  Cu
  Cu176    1.0000 0.30000  0.45000  0.05000  Biso   1.000  Cu
  Cu177    1.0000 0.40000  0.40000  0.00000  Biso   1.000  Cu
  Cu178    1.0000 0.45000  0.45000  0.00000  Biso   1.000  Cu
  Cu179    1.0000 0.45000  0.40000  0.05000  Biso   1.000  Cu
  Cu180    1.0000 0.40000  0.45000  0.05000  Biso   1.000  Cu
  Cu181    1.0000 0.50000  0.40000  0.00000  Biso   1.000  Cu
  Cu182    1.0000 0.55000  0.45000  0.00000  Biso   1.000  Cu
  Cu183    1.0000 0.55000  0.40000  0.05000  Biso   1.000  Cu
  Cu184    1.0000 0.50000  0.45000  0.05000  Biso   1.000  Cu
  Cu185    1.0000 0.60000  0.40000  0.00000  Biso   1.000  Cu
  Cu186    1.0000 0.65000  0.45000  0.00000  Biso   1.000  Cu
  Cu187    1.0000 0.65000  0.40000  0.05000  Biso   1.000  Cu
  Cu188    1.0000 0.60000  0.45000  0.05000  Biso   1.000  Cu
  Cu189    1.0000 0.70000  0.40000  0.00000  Biso   1.000  Cu
  Cu190    1.0000 0.75000  0.45000  0.00000  Biso   1.000  Cu
  Cu191    1.0000 0.75000  0.40000  0.05000  Biso   1.000  Cu
  Cu192    1.0000 0.70000  0.45000  0.05000  Biso   1.000  Cu
  Cu193    1.0000 0.80000  0.40000  0.00000  Biso   1.000  Cu
  Cu194    1.0000 0.85000  0.45000  0.00000  Biso   1.000  Cu
  Cu195    1.0000 0.85000  0.40000  0.05000  Biso   1.000  Cu
  Cu196    1.0000 0.80000  0.45000  0.05000  Biso   1.000  Cu
  Cu197    1.0000 0.90000  0.40000  0.00000  Biso   1.000  Cu
  Cu198    1.0000 0.95000  0.45000  0.00000  Biso   1.000  Cu
  Cu199    1.0000 0.95000  0.40000  0.05000  Biso   1.000  Cu
  Cu200    1.0000 0.90000  0.45000  0.05000  Biso   1.000  Cu
  Cu201    1.0000 0.00000  0.50000  0.00000  Biso   1.000  Cu
  Cu202    1.0000 0.05000  0.55000  0.00000  Biso   1.000  Cu
  Cu203    1.0000 0.05000  0.50000  0.05000  Biso   1.000  Cu
  Cu204    1.0000 0.00000  0.55000  0.05000  Biso   1.000  Cu
  Cu205    1.0000 0.10000  0.50000  0.00000  Biso   1.000  Cu
  Cu206    1.0000 0.15000  0.55000  0.00000  Biso   1.000  Cu
  Cu207    1.0000 0.15000  0.50000  0.05000  Biso   1.000  Cu
  Cu208    1.0000 0.10000  0.55000  0.05000  Biso   1.000  Cu
  Cu209    1.0000 0.20000  0.50000  0.00000  Biso   1.000  Cu
  Cu210    1.0000 0.25000  0.55000  0.00000  Biso   1.000  Cu
  Cu211    1.0000 0.25000  0.50000  0.05000  Biso   1.000  Cu
  Cu212    1.0000 0.20000  0.55000  0.05000  Biso   1.000  Cu
  Cu213    1.0000 0.30000  0.50000  0.00000  Biso   1.000  Cu
  Cu214    1.0000 0.35000  0.55000  0.00000  Biso   1.000  Cu
  Cu215    1.0000 0.35000  0.50000  0.05000  Biso   1.000  Cu
  Cu216    1.0000 0.30000  0.55000  0.05000  Biso   1.000  Cu
  Cu217    1.0000 0.40000  0.50000  0.00000  Biso   1.000  Cu
  Cu218    1.0000 0.45000  0.55000  0.00000  Biso   1.000  Cu
  Cu219    1.0000 0.45000  0.50000  0.05000  Biso   1.000  Cu
  Cu220    1.0000 0.40000  0.55000  0.05000  Biso   1.000  Cu
  Cu221    1.0000 0.50000  0.50000  0.00000  Biso   1.000  Cu
  Cu222    1.0000 0.55000  0.55000  0.00000  Biso   1.000  Cu
  Cu223    1.0000 0.55000  0.50000  0.05000  Biso   1.000  Cu
  Cu224    1.0000 0.50000  0.55000  0.05000  Biso   1.000  Cu
  Cu225    1.0000 0.60000  0.50000  0.00000  Biso   1.000  Cu
  Cu226    1.0000 0.65000  0.55000  0.00000  Biso   1.000  Cu
  Cu227    1.0000 0.65000  0.50000  0.05000  Biso   1.000  Cu
  Cu228    1.0000 0.60000  0.55000  0.05000  Biso   1.000  Cu
  Cu229    1.0000 0.70000  0.50000  0.00000  Biso   1.000  Cu
  Cu230    1.0000 0.75000  0.55000  0.00000  Biso   1.000  Cu
  Cu231    1.0000 0.75000  0.50000  0.05000  Biso   1.000  Cu
  Cu232    1.0000 0.70000  0.55000  0.05000  Biso   1.000  Cu
  Cu233    1.0000 0.80000  0.50000  0.00000  Biso   1.000  Cu
  Cu234    1.0000 0.85000  0.55000  0.00000  Biso   1.000  Cu
  Cu235    1.0000 0.85000  0.50000  0.05000  Biso   1.000  Cu
  Cu236    1.0000 0.80000  0.55000  0.05000  Biso   1.000  Cu
  Cu237    1.0000 0.90000  0.50000  0.00000  Biso   1.000  Cu
  Cu238    1.0000 0.95000  0.55000  0.00000  Biso   1.000  Cu
  Cu239    1.0000 0.95000  0.50000  0.05000  Biso   1.000  Cu
  Cu240    1.0000 0.90000  0.55000  0.05000  Biso   1.000  Cu
  Cu241    1.0000 0.00000  0.60000  0.00000  Biso   1.000  Cu
  Cu242    1.0000 0.05000  0.65000  0.00000  Biso   1.000  Cu
  Cu243    1.0000 0.05000  0.60000  0.05000  Biso   1.000  Cu
  Cu244    1.0000 0.00000  0.65000  0.05000  Biso   1.000  Cu
  Cu245    1.0000 0.10000  0.60000  0.00000  Biso   1.000  Cu
  Cu246    1.0000 0.15000  0.65000  0.00000  Biso   1.000  Cu
  Cu247    1.0000 0.15000  0.60000  0.05000  Biso   1.000  Cu
  Cu248    1.0000 0.10000  0.65000  0.05000  Biso   1.000  Cu
  Cu249    1.0000 0.20000  0.60000  0.00000  Biso   1.000  Cu
  Cu250    1.0000 0.25000  0.65000  0.00000  Biso   1.000  Cu
  Cu251    1.0000 0.25000  0.60000  0.05000  Biso   1.000  Cu
  Cu252    1.0000 0.20000  0.65000  0.05000  Biso   1.000  Cu
  Cu253    1.0000 0.30000  0.60000  0.00000  Biso   1.000  Cu
  Cu254    1.0000 0.35000  0.65000  0.00000  Biso   1.000  Cu
  Cu255    1.0000 0.35000  0.60000  0.05000  Biso   1.000  Cu
  Cu256    1.0000 0.30000  0.65000  0.05000  Biso   1.000  Cu
  Cu257    1.0000 0.40000  0.60000  0.00000  Biso   1.000  Cu
  Cu258    1.0000 0.45000  0.65000  0.00000  Biso   1.000  Cu
  Cu259    1.0000 0.45000  0.60000  0.05000  Biso   1.000  Cu
  Cu260    1.0000 0.40000  0.65000  0.05000  Biso   1.000  Cu
  Cu261    1.0000 0.50000  0.60000  0.00000  Biso   1.000  Cu
  Cu262    1.0000 0.55000  0.65000  0.00000  Biso   1.000  Cu
  Cu263    1.0000 0.55000  0.60000  0.05000  Biso   1.000  Cu
  Cu264    1.0000 0.50000  0.65000  0.05000  Biso   1.000  Cu
  Cu265    1.0000 0.60000  0.60000  0.00000  Biso   1.000  Cu
  Cu266    1.0000 0.65000  0.65000  0.00000  Biso   1.000  Cu
  Cu267    1.0000 0.65000  0.60000  0.05000  Biso   1.000  Cu
  Cu268    1.0000 0.60000  0.65000  0.05000  Biso   1.000  Cu
  Cu269    1.0000 0.70000  0.60000  0.00000  Biso   1.000  Cu
  Cu270    1.0000 0.75000  0.65000  0.00000  Biso   1.000  Cu
  Cu271    1.0000 0.75000  0.60000  0.05000  Biso   1.000  Cu
  Cu272    1.0000 0.70000  0.65000  0.05000  Biso   1.000  Cu
  Cu273    1.0000 0.80000  0.60000  0.00000  Biso   1.000  Cu
  Cu274    1.0000 0.85000  0.65000  0.00000  Biso   1.000  Cu
  Cu275    1.0000 0.85000  0.60000  0.05000  Biso   1.000  Cu
  Cu276    1.0000 0.80000  0.65000  0.05000  Biso   1.000  Cu
  Cu277    1.0000 0.90000  0.60000  0.00000  Biso   1.000  Cu
  Cu278    1.0000 0.95000  0.65000  0.00000  Biso   1.000  Cu
  Cu279    1.0000 0.95000  0.60000  0.05000  Biso   1.000  Cu
  Cu280    1.0000 0.90000  0.65000  0.05000  Biso   1.000  Cu
  Cu281    1.0000 0.00000  0.70000  0.00000  Biso   1.000  Cu
  Cu282    1.0000 0.05000  0.75000  0.00000  Biso   1.000  Cu
  Cu283    1.0000 0.05000  0.70000  0.05000  Biso   1.000  Cu
  Cu284    1.0000 0.00000  0.75000  0.05000  Biso   1.000  Cu
  Cu285    1.0000 0.10000  0.70000  0.00000  Biso   1.000  Cu
  Cu286    1.0000 0.15000  0.75000  0.00000  Biso   1.000  Cu
  Cu287    1.0000 0.15000  0.70000  0.05000  Biso   1.000  Cu
  Cu288    1.0000 0.10000  0.75000  0.05000  Biso   1.000  Cu
  Cu289    1.0000 0.20000  0.70000  0.00000  Biso   1.000  Cu
  Cu290    1.0000 0.25000  0.75000  0.00000  Biso   1.000  Cu
  Cu291    1.0000 0.25000  0.70000  0.05000  Biso   1.000  Cu
  Cu292    1.0000 0.20000  0.75000  0.05000  Biso   1.000  Cu
  Cu293    1.0000 0.30000  0.70000  0.00000  Biso   1.000  Cu
  Cu294    1.0000 0.35000  0.75000  0.00000  Biso   1.000  Cu
  Cu295    1.0000 0.35000  0.70000  0.05000  Biso   1.000  Cu
  Cu296    1.0000 0.30000  0.75000  0.05000  Biso   1.000  Cu
  Cu297    1.0000 0.40000  0.70000  0.00000  Biso   1.000  Cu
  Cu298    1.0000 0.45000  0.75000  0.00000  Biso   1.000  Cu
  Cu299    1.0000 0.45000  0.70000  0.05000  Biso   1.000  Cu
  Cu300    1.0000 0.40000  0.75000  0.05000  Biso   1.000  Cu
  Cu301    1.0000 0.50000  0.70000  0.00000  Biso   1.000  Cu
  Cu302    1.0000 0.55000  0.75000  0.00000  Biso   1.000  Cu
  Cu303    1.0000 0.55000  0.70000  0.05000  Biso   1.000  Cu
  Cu304    1.0000 0.50000  0.75000  0.05000  Biso   1.000  Cu
  Cu305    1.0000 0.60000  0.70000  0.00000  Biso   1.000  Cu
  Cu306    1.0000 0.65000  0.75000  0.00000  Biso   1.000  Cu
  Cu307    1.0000 0.65000  0.70000  0.05000  Biso   1.000  Cu
  Cu308    1.0000 0.60000  0.75000  0.05000  Biso   1.000  Cu
  Cu309    1.0000 0.70000  0.70000  0.00000  Biso   1.000  Cu
  Cu310    1.0000 0.75000  0.75000  0.00000  Biso   1.000  Cu
  Cu311    1.0000 0.75000  0.70000  0.05000  Biso   1.000  Cu
  Cu312    1.0000 0.70000  0.75000  0.05000  Biso   1.000  Cu
  Cu313    1.0000 0.80000  0.70000  0.00000  Biso   1.000  Cu
  Cu314    1.0000 0.85000  0.75000  0.00000  Biso   1.000  Cu
  Cu315    1.0000 0.85000  0.70000  0.05000  Biso   1.000  Cu
  Cu316    1.0000 0.80000  0.75000  0.05000  Biso   1.000  Cu
  Cu317    1.0000 0.90000  0.70000  0.00000  Biso   1.000  Cu
  Cu318    1.0000 0.95000  0.75000  0.00000  Biso   1.000  Cu
  Cu319    1.0000 0.95000  0.70000  0.05000  Biso   1.000  Cu
  Cu320    1.0000 0.90000  0.75000  0.05000  Biso   1.000  Cu
  Cu321    1.0000 0.00000  0.80000  0.00000  Biso   1.000  Cu
  Cu322    1.0000 0.05000  0.85000  0.00000  Biso   1.000  Cu
  Cu323    1.0000 0.05000  0.80000  0.05000  Biso   1.000  Cu
  Cu324    1.0000 0.00000  0.85000  0.05000  Biso   1.000  Cu
  Cu325    1.0000 0.10000  0.80000  0.00000  Biso   1.000  Cu
  Cu326    1.0000 0.15000  0.85000  0.00000  Biso   1.000  Cu
  Cu327    1.0000 0.15000  0.80000  0.05000  Biso   1.000  Cu
  Cu328    1.0000 0.10000  0.85000  0.05000  Biso   1.000  Cu
  Cu329    1.0000 0.20000  0.80000  0.00000  Biso   1.000  Cu
  Cu330    1.0000 0.25000  0.85000  0.00000  Biso   1.000  Cu
  Cu331    1.0000 0.25000  0.80000  0.05000  Biso   1.000  Cu
  Cu332    1.0000 0.20000  0.85000  0.05000  Biso   1.000  Cu
  Cu333    1.0000 0.30000  0.80000  0.00000  Biso   1.000  Cu
  Cu334    1.0000 0.35000  0.85000  0.00000  Biso   1.000  Cu
  Cu335    1.0000 0.35000  0.80000  0.05000  Biso   1.000  Cu
  Cu336    1.0000 0.30000  0.85000  0.05000  Biso   1.000  Cu
  Cu337    1.0000 0.40000  0.80000  0.00000  Biso   1.000  Cu
  Cu338    1.0000 0.45000  0.85000  0.00000  Biso   1.000  Cu
  Cu339    1.0000 0.45000  0.80000  0.05000  Biso   1.000  Cu
  Cu340    1.0000 0.40000  0.85000  0.05000  Biso   1.000  Cu
  Cu341    1.0000 0.50000  0.80000  0.00000  Biso   1.000  Cu
  Cu342    1.0000 0.55000  0.85000  0.00000  Biso   1.000  Cu
  Cu343    1.0000 0.55000  0.80000  0.05000  Biso   1.000  Cu
  Cu344    1.0000 0.50000  0.85000  0.05000  Biso   1.000  Cu
  Cu345    1.0000 0.60000  0.80000  0.00000  Biso   1.000  Cu
  Cu346    1.0000 0.65000  0.85000  0.00000  Biso   1.000  Cu
  Cu347    1.0000 0.65000  0.80000  0.05000  Biso   1.000  Cu
  Cu348    1.0000 0.60000  0.85000  0.05000  Biso   1.000  Cu
  Cu349    1.0000 0.70000  0.80000  0.00000  Biso   1.000  Cu
  Cu350    1.0000 0.75000  0.85000  0.00000  Biso   1.000  Cu
  Cu351    1.0000 0.75000  0.80000  0.05000  Biso   1.000  Cu
  Cu352    1.0000 0.70000  0.85000  0.05000  Biso   1.000  Cu
  Cu353    1.0000 0.80000  0.80000  0.00000  Biso   1.000  Cu
  Cu354    1.0000 0.85000  0.85000  0.00000  Biso   1.000  Cu
  Cu355    1.0000 0.85000  0.80000  0.05000  Biso   1.000  Cu
  Cu356    1.0000 0.80000  0.85000  0.05000  Biso   1.000  Cu
  Cu357    1.0000 0.90000  0.80000  0.00000  Biso   1.000  Cu
  Cu358    1.0000 0.95000  0.85000  0.00000  Biso   1.000  Cu
  Cu359    1.0000 0.95000  0.80000  0.05000  Biso   1.000  Cu
  Cu360    1.0000 0.90000  0.85000  0.05000  Biso   1.000  Cu
  Cu361    1.0000 0.00000  0.90000  0.00000  Biso   1.000  Cu
  Cu362    1.0000 0.05000  0.95000  0.00000  Biso   1.000  Cu
  Cu363    1.0000 0.05000  0.90000  0.05000  Biso   1.000  Cu
  Cu364    1.0000 0.00000  0.95000  0.05000  Biso   1.000  Cu
  Cu365    1.0000 0.10000  0.90000  0.00000  Biso   1.000  Cu
  Cu366    1.0000 0.15000  0.95000  0.00000  Biso   1.000  Cu
  Cu367    1.0000 0.15000  0.90000  0.05000  Biso   1.000  Cu
  Cu368    1.0000 0.10000  0.95000  0.05000  Biso   1.000  Cu
  Cu369    1.0000 0.20000  0.90000  0.00000  Biso   1.000  Cu
  Cu370    1.0000 0.25000  0.95000  0.00000  Biso   1.000  Cu
  Cu371    1.0000 0.25000  0.90000  0.05000  Biso   1.000  Cu
  Cu372    1.0000 0.20000  0.95000  0.05000  Biso   1.000  Cu
  Cu373    1.0000 0.30000  0.90000  0.00000  Biso   1.000  Cu
  Cu374    1.0000 0.35000  0.95000  0.00000  Biso   1.000  Cu
  Cu375    1.0000 0.35000  0.90000  0.05000  Biso   1.000  Cu
  Cu376    1.0000 0.30000  0.95000  0.05000  Biso   1.000  Cu
  Cu377    1.0000 0.40000  0.90000  0.00000  Biso   1.000  Cu
  Cu378    1.0000 0.45000  0.95000  0.00000  Biso   1.000  Cu
  Cu379    1.0000 0.45000  0.90000  0.05000  Biso   1.000  Cu
  Cu380    1.0000 0.40000  0.95000  0.05000  Biso   1.000  Cu
  Cu381    1.0000 0.50000  0.90000  0.00000  Biso   1.000  Cu
  Cu382    1.0000 0.55000  0.95000  0.00000  Biso   1.000  Cu
  Cu383    1.0000 0.55000  0.90000  0.05000  Biso   1.000  Cu
  Cu384    1.0000 0.50000  0.95000  0.05000  Biso   1.000  Cu
  Cu385    1.0000 0.60000  0.90000  0.00000  Biso   1.000  Cu
  Cu386    1.0000 0.65000  0.95000  0.00000  Biso   1.000  Cu
  Cu387    1.0000 0.65000  0.90000  0.05000  Biso   1.000  Cu
  Cu388    1.0000 0.60000  0.95000  0.05000  Biso   1.000  Cu
  Cu389    1.0000 0.70000  0.90000  0.00000  Biso   1.000  Cu
  Cu390    1.0000 0.75000  0.95000  0.00000  Biso   1.000  Cu
  Cu391    1.0000 0.75000  0.90000  0.05000  Biso   1.000  Cu
  Cu392    1.0000 0.70000  0.95000  0.05000  Biso   1.000  Cu
  Cu393    1.0000 0.80000  0.90000  0.00000  Biso   1.000  Cu
  Cu394    1.0000 0.85000  0.95000  0.00000  Biso   1.000  Cu
  Cu395    1.0000 0.85000  0.90000  0.05000  Biso   1.000  Cu
  Cu396    1.0000 0.80000  0.95000  0.05000  Biso   1.000  Cu
  Cu397    1.0000 0.90000  0.90000  0.00000  Biso   1.000  Cu
  Cu398    1.0000 0.95000  0.95000  0.00000  Biso   1.000  Cu
  Cu399    1.0000 0.95000  0.90000  0.05000  Biso   1.000  Cu
  Cu400    1.0000 0.90000  0.95000  0.05000  Biso   1.000  Cu
  Cu401    1.0000 0.00000  0.00000  0.10000  Biso   1.000  Cu
  Cu402    1.0000 0.05000  0.05000  0.10000  Biso   1.000  Cu
  Cu403    1.0000 0.05000  0.00000  0.15000  Biso   1.000  Cu
  Cu404    1.0000 0.00000  0.05000  0.15000  Biso   1.000  Cu
  Cu405    1.0000 0.10000  0.00000  0.10000  Biso   1.000  Cu
  Cu406    1.0000 0.15000  0.05000  0.10000  Biso   1.000  Cu
  Cu407    1.0000 0.15000  0.00000  0.15000  Biso   1.000  Cu
  Cu408    1.0000 0.10000  0.05000  0.15000  Biso   1.000  Cu
  Cu409    1.0000 0.20000  0.00000  0.10000  Biso   1.000  Cu
  Cu410    1.0000 0.25000  0.05000  0.10000  Biso   1.000  Cu
  Cu411    1.0000 0.25000  0.00000  0.15000  Biso   1.000  Cu
  Cu412    1.0000 0.20000  0.05000  0.15000  Biso   1.000  Cu
  Cu413    1.0000 0.30000  0.00000  0.10000  Biso   1.000  Cu
  Cu414    1.0000 0.35000  0.05000  0.10000  Biso   1.000  Cu
  Cu415    1.0000 0.35000  0.00000  0.15000  Biso   1.000  Cu
  Cu416    1.0000 0.30000  0.05000  0.15000  Biso   1.000  Cu
  Cu417    1.0000 0.40000  0.00000  0.10000  Biso   1.000  Cu
  Cu418    1.0000 0.45000  0.05000  0.10000  Biso   1.000  Cu
  Cu419    1.0000 0.45000  0.00000  0.15000  Biso   1.000  Cu
  Cu420    1.0000 0.40000  0.05000  0.15000  Biso   1.000  Cu
  Cu421    1.0000 0.50000  0.00000  0.10000  Biso   1.000  Cu
  Cu422    1.0000 0.55000  0.05000  0.10000  Biso   1.000  Cu
  Cu423    1.0000 0.55000  0.00000  0.15000  Biso   1.000  Cu
  Cu424    1.0000 0.50000  0.05000  0.15000  Biso   1.000  Cu
  Cu425    1.0000 0.60000  0.00000  0.10000  Biso   1.000  Cu
  Cu426    1.0000 0.65000  0.05000  0.10000  Biso   1.000  Cu
  Cu427    1.0000 0.65000  0.00000  0.15000  Biso   1.000  Cu
  Cu428    1.0000 0.60000  0.05000  0.15000  Biso   1.000  Cu
  Cu429    1.0000 0.70000  0.00000  0.10000  Biso   1.000  Cu
  Cu430    1.0000 0.75000  0.05000  0.10000  Biso   1.000  Cu
  Cu431    1.0000 0.75000  0.00000  0.15000  Biso   1.000  Cu
  Cu432    1.0000 0.70000  0.05000  0.15000  Biso   1.000  Cu
  Cu433    1.0000 0.80000  0.00000  0.10000  Biso   1.000  Cu
  Cu434    1.0000 0.85000  0.05000  0.10000  Biso   1.000  Cu
  Cu435    1.0000 0.85000  0.00000  0.15000  Biso   1.000  Cu
  Cu436    1.0000 0.80000  0.05000  0.15000  Biso   1.000  Cu
  Cu437    1.0000 0.90000  0.00000  0.10000  Biso   1.000  Cu
  Cu438    1.0000 0.95000  0.05000  0.10000  Biso   1.000  Cu
  Cu439    1.0000 0.95000  0.00000  0.15000  Biso   1.000  Cu
  Cu440    1.0000 0.90000  0.05000  0.15000  Biso   1.000  Cu
  Cu441    1.0000 0.00000  0.10000  0.10000  Biso   1.000  Cu
  Cu442    1.0000 0.05000  0.15000  0.10000  Biso   1.000  Cu
  Cu443    1.0000 0.05000  0.10000  0.15000  Biso   1.000  Cu
  Cu444    1.0000 0.00000  0.15000  0.15000  Biso   1.000  Cu
  Cu445    1.0000 0.10000  0.10000  0.10000  Biso   1.000  Cu
  Cu446    1.0000 0.15000  0.15000  0.10000  Biso   1.000  Cu
  Cu447    1.0000 0.15000  0.10000  0.15000  Biso   1.000  Cu
  Cu448    1.0000 0.10000  0.15000  0.15000  Biso   1.000  Cu
  Cu449    1.0000 0.20000  0.10000  0.10000  Biso   1.000  Cu
  Cu450    1.0000 0.25000  0.15000  0.10000  Biso   1.000  Cu
  Cu451    1.0000 0.25000  0.10000  0.15000  Biso   1.000  Cu
  Cu452    1.0000 0.20000  0.15000  0.15000  Biso   1.000  Cu
  Cu453    1.0000 0.30000  0.10000  0.10000  Biso   1.000  Cu
  Cu454    1.0000 0.35000  0.15000  0.10000  Biso   1.000  Cu
  Cu455    1.0000 0.35000  0.10000  0.15000  Biso   1.000  Cu
  Cu456    1.0000 0.30000  0.15000  0.15000  Biso   1.000  Cu
  Cu457    1.0000 0.40000  0.10000  0.10000  Biso   1.000  Cu
  Cu458    1.0000 0.45000  0.15000  0.10000  Biso   1.000  Cu
  Cu459    1.0000 0.45000  0.10000  0.15000  Biso   1.000  Cu
  Cu460    1.0000 0.40000  0.15000  0.15000  Biso   1.000  Cu
  Cu461    1.0000 0.50000  0.10000  0.10000  Biso   1.000  Cu
  Cu462    1.0000 0.55000  0.15000  0.10000  Biso   1.000  Cu
  Cu463    1.0000 0.55000  0.10000  0.15000  Biso   1.000  Cu
  Cu464    1.0000 0.50000  0.15000  0.15000  Biso   1.000  Cu
  Cu465    1.0000 0.60000  0.10000  0.10000  Biso   1.000  Cu
  Cu466    1.0000 0.65000  0.15000  0.10000  Biso   1.000  Cu
  Cu467    1.0000 0.65000  0.10000  0.15000  Biso   1.000  Cu
  Cu468    1.0000 0.60000  0.15000  0.15000  Biso   1.000  Cu
  Cu469    1.0000 0.70000  0.10000  0.10000  Biso   1.000  Cu
  Cu470    1.0000 0.75000  0.15000  0.10000  Biso   1.000  Cu
  Cu471    1.0000 0.75000  0.10000  0.15000  Biso   1.000  Cu
  Cu472    1.0000 0.70000  0.15000  0.15000  Biso   1.000  Cu
  Cu473    1.0000 0.80000  0.10000  0.10000  Biso   1.000  Cu
  Cu474    1.0000 0.85000  0.15000  0.10000  Biso   1.000  Cu
  Cu475    1.0000 0.85000  0.10000  0.15000  Biso   1.000  Cu
  Cu476    1.0000 0.80000  0.15000  0.15000  Biso   1.000  Cu
  Cu477    1.0000 0.90000  0.10000  0.10000  Biso   1.000  Cu
  Cu478    1.0000 0.95000  0.15000  0.10000  Biso   1.000  Cu
  Cu479    1.0000 0.95000  0.10000  0.15000  Biso   1.000  Cu
  Cu480    1.0000 0.90000  0.15000  0.15000  Biso   1.000  Cu
  Cu481    1.0000 0.00000  0.20000  0.10000  Biso   1.000  Cu
  Cu482    1.0000 0.05000  0.25000  0.10000  Biso   1.000  Cu
  Cu483    1.0000 0.05000  0.20000  0.15000  Biso   1.000  Cu
  Cu484    1.0000 0.00000  0.25000  0.15000  Biso   1.000  Cu
  Cu485    1.0000 0.10000  0.20000  0.10000  Biso   1.000  Cu
  Cu486    1.0000 0.15000  0.25000  0.10000  Biso   1.000  Cu
  Cu487    1.0000 0.15000  0.20000  0.15000  Biso   1.000  Cu
  Cu488    1.0000 0.10000  0.25000  0.15000  Biso   1.000  Cu
  Cu489    1.0000 0.20000  0.20000  0.10000  Biso   1.000  Cu
  Cu490    1.0000 0.25000  0.25000  0.10000  Biso   1.000  Cu
  Cu491    1.0000 0.25000  0.20000  0.15000  Biso   1.000  Cu
  Cu492    1.0000 0.20000  0.25000  0.15000  Biso   1.000  Cu
  Cu493    1.0000 0.30000  0.20000  0.10000  Biso   1.000  Cu
  Cu494    1.0000 0.35000  0.25000  0.10000  Biso   1.000  Cu
  Cu495    1.0000 0.35000  0.20000  0.15000  Biso   1.000  Cu
  Cu496    1.0000 0.30000  0.25000  0.15000  Biso   1.000  Cu
  Cu497    1.0000 0.40000  0.20000  0.10000  Biso   1.000  Cu
  Cu498    1.0000 0.45000  0.25000  0.10000  Biso   1.000  Cu
  Cu499    1.0000 0.45000  0.20000  0.15000  Biso   1.000  Cu
  Cu500    1.0000 0.40000  0.25000  0.15000  Biso   1.000  Cu
  Cu501    1.0000 0.50000  0.20000  0.10000  Biso   1.000  Cu
  Cu502    1.0000 0.55000  0.25000  0.10000  Biso   1.000  Cu
  Cu503    1.0000 0.55000  0.20000  0.15000  Biso   1.000  Cu
  Cu504    1.0000 0.50000  0.25000  0.15000  Biso   1.000  Cu
  Cu505    1.0000 0.60000  0.20000  0.10000  Biso   1.000  Cu
  Cu506    1.0000 0.65000  0.25000  0.10000  Biso   1.000  Cu
  Cu507    1.0000 0.65000  0.20000  0.15000  Biso   1.000  Cu
  Cu508    1.0000 0.60000  0.25000  0.15000  Biso   1.000  Cu
  Cu509    1.0000 0.70000  0.20000  0.10000  Biso   1.000  Cu
  Cu510    1.0000 0.75000  0.25000  0.10000  Biso   1.000  Cu
  Cu511    1.0000 0.75000  0.20000  0.15000  Biso   1.000  Cu
  Cu512    1.0000 0.70000  0.25000  0.15000  Biso   1.000  Cu
  Cu513    1.0000 0.80000  0.20000  0.10000  Biso   1.000  Cu
  Cu514    1.0000 0.85000  0.25000  0.10000  Biso   1.000  Cu
  Cu515    1.0000 0.85000  0.20000  0.15000  Biso   1.000  Cu
  Cu516    1.0000 0.80000  0.25000  0.15000  Biso   1.000  Cu
  Cu517    1.0000 0.90000  0.20000  0.10000  Biso   1.000  Cu
  Cu518    1.0000 0.95000  0.25000  0.10000  Biso   1.000  Cu
  Cu519    1.0000 0.95000  0.20000  0.15000  Biso   1.000  Cu
  Cu520    1.0000 0.90000  0.25000  0.15000  Biso   1.000  Cu
  Cu521    1.0000 0.00000  0.30000  0.10000  Biso   1.000  Cu
  Cu522    1.0000 0.05000  0.35000  0.10000  Biso   1.000  Cu
  Cu523    1.0000 0.05000  0.30000  0.15000  Biso   1.000  Cu
  Cu524    1.0000 0.00000  0.35000  0.15000  Biso   1.000  Cu
  Cu525    1.0000 0.10000  0.30000  0.10000  Biso   1.000  Cu
  Cu526    1.0000 0.15000  0.35000  0.10000  Biso   1.000  Cu
  Cu527    1.0000 0.15000  0.30000  0.15000  Biso   1.000  Cu
  Cu528    1.0000 0.10000  0.35000  0.15000  Biso   1.000  Cu
  Cu529    1.0000 0.20000  0.30000  0.10000  Biso   1.000  Cu
  Cu530    1.0000 0.25000  0.35000  0.10000  Biso   1.000  Cu
  Cu531    1.0000 0.25000  0.30000  0.15000  Biso   1.000  Cu
  Cu532    1.0000 0.20000  0.35000  0.15000  Biso   1.000  Cu
  Cu533    1.0000 0.30000  0.30000  0.10000  Biso   1.000  Cu
  Cu534    1.0000 0.35000  0.35000  0.10000  Biso   1.000  Cu
  Cu535    1.0000 0.35000  0.30000  0.15000  Biso   1.000  Cu
  Cu536    1.0000 0.30000  0.35000  0.15000  Biso   1.000  Cu
  Cu537    1.0000 0.40000  0.30000  0.10000  Biso   1.000  Cu
  Cu538    1.0000 0.45000  0.35000  0.10000  Biso   1.000  Cu
  Cu539    1.0000 0.45000  0.30000  0.15000  Biso   1.000  Cu
  Cu540    1.0000 0.40000  0.35000  0.15000  Biso   1.000  Cu
  Cu541    1.0000 0.50000  0.30000  0.10000  Biso   1.000  Cu
  Cu542    1.0000 0.55000  0.35000  0.10000  Biso   1.000  Cu
  Cu543    1.0000 0.55000  0.30000  0.15000  Biso   1.000  Cu
  Cu544    1.0000 0.50000  0.35000  0.15000  Biso   1.000  Cu
  Cu545    1.0000 0.60000  0.30000  0.10000  Biso   1.000  Cu
  Cu546    1.0000 0.65000  0.35000  0.10000  Biso   1.000  Cu
  Cu547    1.0000 0.65000  0.30000  0.15000  Biso   1.000  Cu
  Cu548    1.0000 0.60000  0.35000  0.15000  Biso   1.000  Cu
  Cu549    1.0000 0.70000  0.30000  0.10000  Biso   1.000  Cu
  Cu550    1.0000 0.75000  0.35000  0.10000  Biso   1.000  Cu
  Cu551    1.0000 0.75000  0.30000  0.15000  Biso   1.000  Cu
  Cu552    1.0000 0.70000  0.35000  0.15000  Biso   1.000  Cu
  Cu553    1.0000 0.80000  0.30000  0.10000  Biso   1.000  Cu
  Cu554    1.0000 0.85000  0.35000  0.10000  Biso   1.000  Cu
  Cu555    1.0000 0.85000  0.30000  0.15000  Biso   1.000  Cu
  Cu556    1.0000 0.80000  0.35000  0.15000  Biso   1.000  Cu
  Cu557    1.0000 0.90000  0.30000  0.10000  Biso   1.000  Cu
  Cu558    1.0000 0.95000  0.35000  0.10000  Biso   1.000  Cu
  Cu559    1.0000 0.95000  0.30000  0.15000  Biso   1.000  Cu
  Cu560    1.0000 0.90000  0.35000  0.15000  Biso   1.000  Cu
  Cu561    1.0000 0.00000  0.40000  0.10000  Biso   1.000  Cu
  Cu562    1.0000 0.05000  0.45000  0.10000  Biso   1.000  Cu
  Cu563    1.0000 0.05000  0.40000  0.15000  Biso   1.000  Cu
  Cu564    1.0000 0.00000  0.45000  0.15000  Biso   1.000  Cu
  Cu565    1.0000 0.10000  0.40000  0.10000  Biso   1.000  Cu
  Cu566    1.0000 0.15000  0.45000  0.10000  Biso   1.000  Cu
  Cu567    1.0000 0.15000  0.40000  0.15000  Biso   1.000  Cu
  Cu568    1.0000 0.10000  0.45000  0.15000  Biso   1.000  Cu
  Cu569    1.0000 0.20000  0.40000  0.10000  Biso   1.000  Cu
  Cu570    1.0000 0.25000  0.45000  0.10000  Biso   1.000  Cu
  Cu571    1.0000 0.25000  0.40000  0.15000  Biso   1.000  Cu
  Cu572    1.0000 0.20000  0.45000  0.15000  Biso   1.000  Cu
  Cu573    1.0000 0.30000  0.40000  0.10000  Biso   1.000  Cu
  Cu574    1.0000 0.35000  0.45000  0.10000  Biso   1.000  Cu
  Cu575    1.0000 0.35000  0.40000  0.15000  Biso   1.000  Cu
  Cu576    1.0000 0.30000  0.45000  0.15000  Biso   1.000  Cu
  Cu577    1.0000 0.40000  0.40000  0.10000  Biso   1.000  Cu
  Cu578    1.0000 0.45000  0.45000  0.10000  Biso   1.000  Cu
  Cu579    1.0000 0.45000  0.40000  0.15000  Biso   1.000  Cu
  Cu580    1.0000 0.40000  0.45000  0.15000  Biso   1.000  Cu
  Cu581    1.0000 0.50000  0.40000  0.10000  Biso   1.000  Cu
  Cu582    1.0000 0.55000  0.45000  0.10000  Biso   1.000  Cu
  Cu583    1.0000 0.55000  0.40000  0.15000  Biso   1.000  Cu
  Cu584    1.0000 0.50000  0.45000  0.15000  Biso   1.000  Cu
  Cu585    1.0000 0.60000  0.40000  0.10000  Biso   1.000  Cu
  Cu586    1.0000 0.65000  0.45000  0.10000  Biso   1.000  Cu
  Cu587    1.0000 0.65000  0.40000  0.15000  Biso   1.000  Cu
  Cu588    1.0000 0.60000  0.45000  0.15000  Biso   1.000  Cu
  Cu589    1.0000 0.70000  0.40000  0.10000  Biso   1.000  Cu
  Cu590    1.0000 0.75000  0.45000  0.10000  Biso   1.000  Cu
  Cu591    1.0000 0.75000  0.40000  0.15000  Biso   1.000  Cu
  Cu592    1.0000 0.70000  0.45000  0.15000  Biso   1.000  Cu
  Cu593    1.0000 0.80000  0.40000  0.10000  Biso   1.000  Cu
  Cu594    1.0000 0.85000  0.45000  0.10000  Biso   1.000  Cu
  Cu595    1.0000 0.85000  0.40000  0.15000  Biso   1.000  Cu
  Cu596    1.0000 0.80000  0.45000  0.15000  Biso   1.000  Cu
  Cu597    1.0000 0.90000  0.40000  0.10000  Biso   1.000  Cu
  Cu598    1.0000 0.95000  0.45000  0.10000  Biso   1.000  Cu
  Cu599    1.0000 0.95000  0.40000  0.15000  Biso   1.000  Cu
  Cu600    1.0000 0.90000  0.45000  0.15000  Biso   1.000  Cu
  Cu601    1.0000 0.00000  0.50000  0.10000  Biso   1.000  Cu
  Cu602    1.0000 0.05000  0.55000  0.10000  Biso   1.000  Cu
  Cu603    1.0000 0.05000  0.50000  0.15000  Biso   1.000  Cu
  Cu604    1.0000 0.00000  0.55000  0.15000  Biso   1.000  Cu
  Cu605    1.0000 0.10000  0.50000  0.10000  Biso   1.000  Cu
  Cu606    1.0000 0.15000  0.55000  0.10000  Biso   1.000  Cu
  Cu607    1.0000 0.15000  0.50000  0.15000  Biso   1.000  Cu
  Cu608    1.0000 0.10000  0.55000  0.15000  Biso   1.000  Cu
  Cu609    1.0000 0.20000  0.50000  0.10000  Biso   1.000  Cu
  Cu610    1.0000 0.25000  0.55000  0.10000  Biso   1.000  Cu
  Cu611    1.0000 0.25000  0.50000  0.15000  Biso   1.000  Cu
  Cu612    1.0000 0.20000  0.55000  0.15000  Biso   1.000  Cu
  Cu613    1.0000 0.30000  0.50000  0.10000  Biso   1.000  Cu
  Cu614    1.0000 0.35000  0.55000  0.10000  Biso   1.000  Cu
  Cu615    1.0000 0.35000  0.50000  0.15000  Biso   1.000  Cu
  Cu616    1.0000 0.30000  0.55000  0.15000  Biso   1.000  Cu
  Cu617    1.0000 0.40000  0.50000  0.10000  Biso   1.000  Cu
  Cu618    1.0000 0.45000  0.55000  0.10000  Biso   1.000  Cu
  Cu619    1.0000 0.45000  0.50000  0.15000  Biso   1.000  Cu
  Cu620    1.0000 0.40000  0.55000  0.15000  Biso   1.000  Cu
  Cu621    1.0000 0.50000  0.50000  0.10000  Biso   1.000  Cu
  Cu622    1.0000 0.55000  0.55000  0.10000  Biso   1.000  Cu
  Cu623    1.0000 0.55000  0.50000  0.15000  Biso   1.000  Cu
  Cu624    1.0000 0.50000  0.55000  0.15000  Biso   1.000  Cu
  Cu625    1.0000 0.60000  0.50000  0.10000  Biso   1.000  Cu
  Cu626    1.0000 0.65000  0.55000  0.10000  Biso   1.000  Cu
  Cu627    1.0000 0.65000  0.50000  0.15000  Biso   1.000  Cu
  Cu628    1.0000 0.60000  0.55000  0.15000  Biso   1.000  Cu
  Cu629    1.0000 0.70000  0.50000  0.10000  Biso   1.000  Cu
  Cu630    1.0000 0.75000  0.55000  0.10000  Biso   1.000  Cu
  Cu631    1.0000 0.75000  0.50000  0.15000  Biso   1.000  Cu
  Cu632    1.0000 0.70000  0.55000  0.15000  Biso   1.000  Cu
  Cu633    1.0000 0.80000  0.50000  0.10000  Biso   1.000  Cu
  Cu634    1.0000 0.85000  0.55000  0.10000  Biso   1.000  Cu
  Cu635    1.0000 0.85000  0.50000  0.15000  Biso   1.000  Cu
  Cu636    1.0000 0.80000  0.55000  0.15000  Biso   1.000  Cu
  Cu637    1.0000 0.90000  0.50000  0.10000  Biso   1.000  Cu
  Cu638    1.0000 0.95000  0.55000  0.10000  Biso   1.000  Cu
  Cu639    1.0000 0.95000  0.50000  0.15000  Biso   1.000  Cu
  Cu640    1.0000 0.90000  0.55000  0.15000  Biso   1.000  Cu
  Cu641    1.0000 0.00000  0.60000  0.10000  Biso   1.000  Cu
  Cu642    1.0000 0.05000  0.65000  0.10000  Biso   1.000  Cu
  Cu643    1.0000 0.05000  0.60000  0.15000  Biso   1.000  Cu
  Cu644    1.0000 0.00000  0.65000  0.15000  Biso   1.000  Cu
  Cu645    1.0000 0.10000  0.60000  0.10000  Biso   1.000  Cu
  Cu646    1.0000 0.15000  0.65000  0.10000  Biso   1.000  Cu
  Cu647    1.0000 0.15000  0.60000  0.15000  Biso   1.000  Cu
  Cu648    1.0000 0.10000  0.65000  0.15000  Biso   1.000  Cu
  Cu649    1.0000 0.20000  0.60000  0.10000  Biso   1.000  Cu
  Cu650    1.0000 0.25000  0.65000  0.10000  Biso   1.000  Cu
  Cu651    1.0000 0.25000  0.60000  0.15000  Biso   1.000  Cu
  Cu652    1.0000 0.20000  0.65000  0.15000  Biso   1.000  Cu
  Cu653    1.0000 0.30000  0.60000  0.10000  Biso   1.000  Cu
  Cu654    1.0000 0.35000  0.65000  0.10000  Biso   1.000  Cu
  Cu655    1.0000 0.35000  0.60000  0.15000  Biso   1.000  Cu
  Cu656    1.0000 0.30000  0.65000  0.15000  Biso   1.000  Cu
  Cu657    1.0000 0.40000  0.60000  0.10000  Biso   1.000  Cu
  Cu658    1.0000 0.45000  0.65000  0.10000  Biso   1.000  Cu
  Cu659    1.0000 0.45000  0.60000  0.15000  Biso   1.000  Cu
  Cu660    1.0000 0.40000  0.65000  0.15000  Biso   1.000  Cu
  Cu661    1.0000 0.50000  0.60000  0.10000  Biso   1.000  Cu
  Cu662    1.0000 0.55000  0.65000  0.10000  Biso   1.000  Cu
  Cu663    1.0000 0.55000  0.60000  0.15000  Biso   1.000  Cu
  Cu664    1.0000 0.50000  0.65000  0.15000  Biso   1.000  Cu
  Cu665    1.0000 0.60000  0.60000  0.10000  Biso   1.000  Cu
  Cu666    1.0000 0.65000  0.65000  0.10000  Biso   1.000  Cu
  Cu667    1.0000 0.65000  0.60000  0.15000  Biso   1.000  Cu
  Cu668    1.0000 0.60000  0.65000  0.15000  Biso   1.000  Cu
  Cu669    1.0000 0.70000  0.60000  0.10000  Biso   1.000  Cu
  Cu670    1.0000 0.75000  0.65000  0.10000  Biso   1.000  Cu
  Cu671    1.0000 0.75000  0.60000  0.15000  Biso   1.000  Cu
  Cu672    1.0000 0.70000  0.65000  0.15000  Biso   1.000  Cu
  Cu673    1.0000 0.80000  0.60000  0.10000  Biso   1.000  Cu
  Cu674    1.0000 0.85000  0.65000  0.10000  Biso   1.000  Cu
  Cu675    1.0000 0.85000  0.60000  0.15000  Biso   1.000  Cu
  Cu676    1.0000 0.80000  0.65000  0.15000  Biso   1.000  Cu
  Cu677    1.0000 0.90000  0.60000  0.10000  Biso   1.000  Cu
  Cu678    1.0000 0.95000  0.65000  0.10000  Biso   1.000  Cu
  Cu679    1.0000 0.95000  0.60000  0.15000  Biso   1.000  Cu
  Cu680    1.0000 0.90000  0.65000  0.15000  Biso   1.000  Cu
  Cu681    1.0000 0.00000  0.70000  0.10000  Biso   1.000  Cu
  Cu682    1.0000 0.05000  0.75000  0.10000  Biso   1.000  Cu
  Cu683    1.0000 0.05000  0.70000  0.15000  Biso   1.000  Cu
  Cu684    1.0000 0.00000  0.75000  0.15000  Biso   1.000  Cu
  Cu685    1.0000 0.10000  0.70000  0.10000  Biso   1.000  Cu
  Cu686    1.0000 0.15000  0.75000  0.10000  Biso   1.000  Cu
  Cu687    1.0000 0.15000  0.70000  0.15000  Biso   1.000  Cu
  Cu688    1.0000 0.10000  0.75000  0.15000  Biso   1.000  Cu
  Cu689    1.0000 0.20000  0.70000  0.10000  Biso   1.000  Cu
  Cu690    1.0000 0.25000  0.75000  0.10000  Biso   1.000  Cu
  Cu691    1.0000 0.25000  0.70000  0.15000  Biso   1.000  Cu
  Cu692    1.0000 0.20000  0.75000  0.15000  Biso   1.000  Cu
  Cu693    1.0000 0.30000  0.70000  0.10000  Biso   1.000  Cu
  Cu694    1.0000 0.35000  0.75000  0.10000  Biso   1.000  Cu
  Cu695    1.0000 0.35000  0.70000  0.15000  Biso   1.000  Cu
  Cu696    1.0000 0.30000  0.75000  0.15000  Biso   1.000  Cu
  Cu697    1.0000 0.40000  0.70000  0.10000  Biso   1.000  Cu
  Cu698    1.0000 0.45000  0.75000  0.10000  Biso   1.000  Cu
  Cu699    1.0000 0.45000  0.70000  0.15000  Biso   1.000  Cu
  Cu700    1.0000 0.40000  0.75000  0.15000  Biso   1.000  Cu
  Cu701    1.0000 0.50000  0.70000  0.10000  Biso   1.000  Cu
  Cu702    1.0000 0.55000  0.75000  0.10000  Biso   1.000  Cu
  Cu703    1.0000 0.55000  0.70000  0.15000  Biso   1.000  Cu
  Cu704    1.0000 0.50000  0.75000  0.15000  Biso   1.000  Cu
  Cu705    1.0000 0.60000  0.70000  0.10000  Biso   1.000  Cu
  Cu706    1.0000 0.65000  0.75000  0.10000  Biso   1.000  Cu
  Cu707    1.0000 0.65000  0.70000  0.15000  Biso   1.000  Cu
  Cu708    1.0000 0.60000  0.75000  0.15000  Biso   1.000  Cu
  Cu709    1.0000 0.70000  0.70000  0.10000  Biso   1.000  Cu
  Cu710    1.0000 0.75000  0.75000  0.10000  Biso   1.000  Cu
  Cu711    1.0000 0.75000  0.70000  0.15000  Biso   1.000  Cu
  Cu712    1.0000 0.70000  0.75000  0.15000  Biso   1.000  Cu
  Cu713    1.0000 0.80000  0.70000  0.10000  Biso   1.000  Cu
  Cu714    1.0000 0.85000  0.75000  0.10000  Biso   1.000  Cu
  Cu715    1.0000 0.85000  0.70000  0.15000  Biso   1.000  Cu
  Cu716    1.0000 0.80000  0.75000  0.15000  Biso   1.000  Cu
  Cu717    1.0000 0.90000  0.70000  0.10000  Biso   1.000  Cu
  Cu718    1.0000 0.95000  0.75000  0.10000  Biso   1.000  Cu
  Cu719    1.0000 0.95000  0.70000  0.15000  Biso   1.000  Cu
  Cu720    1.0000 0.90000  0.75000  0.15000  Biso   1.000  Cu
  Cu721    1.0000 0.00000  0.80000  0.10000  Biso   1.000  Cu
  Cu722    1.0000 0.05000  0.85000  0.10000  Biso   1.000  Cu
  Cu723    1.0000 0.05000  0.80000  0.15000  Biso   1.000  Cu
  Cu724    1.0000 0.00000  0.85000  0.15000  Biso   1.000  Cu
  Cu725    1.0000 0.10000  0.80000  0.10000  Biso   1.000  Cu
  Cu726    1.0000 0.15000  0.85000  0.10000  Biso   1.000  Cu
  Cu727    1.0000 0.15000  0.80000  0.15000  Biso   1.000  Cu
  Cu728    1.0000 0.10000  0.85000  0.15000  Biso   1.000  Cu
  Cu729    1.0000 0.20000  0.80000  0.10000  Biso   1.000  Cu
  Cu730    1.0000 0.25000  0.85000  0.10000  Biso   1.000  Cu
  Cu731    1.0000 0.25000  0.80000  0.15000  Biso   1.000  Cu
  Cu732    1.0000 0.20000  0.85000  0.15000  Biso   1.000  Cu
  Cu733    1.0000 0.30000  0.80000  0.10000  Biso   1.000  Cu
  Cu734    1.0000 0.35000  0.85000  0.10000  Biso   1.000  Cu
  Cu735    1.0000 0.35000  0.80000  0.15000  Biso   1.000  Cu
  Cu736    1.0000 0.30000  0.85000  0.15000  Biso   1.000  Cu
  Cu737    1.0000 0.40000  0.80000  0.10000  Biso   1.000  Cu
  Cu738    1.0000 0.45000  0.85000  0.10000  Biso   1.000  Cu
  Cu739    1.0000 0.45000  0.80000  0.15000  Biso   1.000  Cu
  Cu740    1.0000 0.40000  0.85000  0.15000  Biso   1.000  Cu
  Cu741    1.0000 0.50000  0.80000  0.10000  Biso   1.000  Cu
  Cu742    1.0000 0.55000  0.85000  0.10000  Biso   1.000  Cu
  Cu743    1.0000 0.55000  0.80000  0.15000  Biso   1.000  Cu
  Cu744    1.0000 0.50000  0.85000  0.15000  Biso   1.000  Cu
  Cu745    1.0000 0.60000  0.80000  0.10000  Biso   1.000  Cu
  Cu746    1.0000 0.65000  0.85000  0.10000  Biso   1.000  Cu
  Cu747    1.0000 0.65000  0.80000  0.15000  Biso   1.000  Cu
  Cu748    1.0000 0.60000  0.85000  0.15000  Biso   1.000  Cu
  Cu749    1.0000 0.70000  0.80000  0.10000  Biso   1.000  Cu
  Cu750    1.0000 0.75000  0.85000  0.10000  Biso   1.000  Cu
  Cu751    1.0000 0.75000  0.80000  0.15000  Biso   1.000  Cu
  Cu752    1.0000 0.70000  0.85000  0.15000  Biso   1.000  Cu
  Cu753    1.0000 0.80000  0.80000  0.10000  Biso   1.000  Cu
  Cu754    1.0000 0.85000  0.85000  0.10000  Biso   1.000  Cu
  Cu755    1.0000 0.85000  0.80000  0.15000  Biso   1.000  Cu
  Cu756    1.0000 0.80000  0.85000  0.15000  Biso   1.000  Cu
  Cu757    1.0000 0.90000  0.80000  0.10000  Biso   1.000  Cu
  Cu758    1.0000 0.95000  0.85000  0.10000  Biso   1.000  Cu
  Cu759    1.0000 0.95000  0.80000  0.15000  Biso   1.000  Cu
  Cu760    1.0000 0.90000  0.85000  0.15000  Biso   1.000  Cu
  Cu761    1.0000 0.00000  0.90000  0.10000  Biso   1.000  Cu
  Cu762    1.0000 0.05000  0.95000  0.10000  Biso   1.000  Cu
  Cu763    1.0000 0.05000  0.90000  0.15000  Biso   1.000  Cu
  Cu764    1.0000 0.00000  0.95000  0.15000  Biso   1.000  Cu
  Cu765    1.0000 0.10000  0.90000  0.10000  Biso   1.000  Cu
  Cu766    1.0000 0.15000  0.95000  0.10000  Biso   1.000  Cu
  Cu767    1.0000 0.15000  0.90000  0.15000  Biso   1.000  Cu
  Cu768    1.0000 0.10000  0.95000  0.15000  Biso   1.000  Cu
  Cu769    1.0000 0.20000  0.90000  0.10000  Biso   1.000  Cu
  Cu770    1.0000 0.25000  0.95000  0.10000  Biso   1.000  Cu
  Cu771    1.0000 0.25000  0.90000  0.15000  Biso   1.000  Cu
  Cu772    1.0000 0.20000  0.95000  0.15000  Biso   1.000  Cu
  Cu773    1.0000 0.30000  0.90000  0.10000  Biso   1.000  Cu
  Cu774    1.0000 0.35000  0.95000  0.10000  Biso   1.000  Cu
  Cu775    1.0000 0.35000  0.90000  0.15000  Biso   1.000  Cu
  Cu776    1.0000 0.30000  0.95000  0.15000  Biso   1.000  Cu
  Cu777    1.0000 0.40000  0.90000  0.10000  Biso   1.000  Cu
  Cu778    1.0000 0.45000  0.95000  0.10000  Biso   1.000  Cu
  Cu779    1.0000 0.45000  0.90000  0.15000  Biso   1.000  Cu
  Cu780    1.0000 0.40000  0.95000  0.15000  Biso   1.000  Cu
  Cu781    1.0000 0.50000  0.90000  0.10000  Biso   1.000  Cu
  Cu782    1.0000 0.55000  0.95000  0.10000  Biso   1.000  Cu
  Cu783    1.0000 0.55000  0.90000  0.15000  Biso   1.000  Cu
  Cu784    1.0000 0.50000  0.95000  0.15000  Biso   1.000  Cu
  Cu785    1.0000 0.60000  0.90000  0.10000  Biso   1.000  Cu
  Cu786    1.0000 0.65000  0.95000  0.10000  Biso   1.000  Cu
  Cu787    1.0000 0.65000  0.90000  0.15000  Biso   1.000  Cu
  Cu788    1.0000 0.60000  0.95000  0.15000  Biso   1.000  Cu
  Cu789    1.0000 0.70000  0.90000  0.10000  Biso   1.000  Cu
  Cu790    1.0000 0.75000  0.95000  0.10000  Biso   1.000  Cu
  Cu791    1.0000 0.75000  0.90000  0.15000  Biso   1.000  Cu
  Cu792    1.0000 0.70000  0.95000  0.15000  Biso   1.000  Cu
  Cu793    1.0000 0.80000  0.90000  0.10000  Biso   1.000  Cu
  Cu794    1.0000 0.85000  0.95000  0.10000  Biso   1.000  Cu
  Cu795    1.0000 0.85000  0.90000  0.15000  Biso   1.000  Cu
  Cu796    1.0000 0.80000  0.95000  0.15000  Biso   1.000  Cu
  Cu797    1.0000 0.90000  0.90000  0.10000  Biso   1.000  Cu
  Cu798    1.0000 0.95000  0.95000  0.10000  Biso   1.000  Cu
  Cu799    1.0000 0.95000  0.90000  0.15000  Biso   1.000  Cu
  Cu800    1.0000 0.90000  0.95000  0.15000  Biso   1.000  Cu
  Cu801    1.0000 0.00000  0.00000  0.20000  Biso   1.000  Cu
  Cu802    1.0000 0.05000  0.05000  0.20000  Biso   1.000  Cu
  Cu803    1.0000 0.05000  0.00000  0.25000  Biso   1.000  Cu
  Cu804    1.0000 0.00000  0.05000  0.25000  Biso   1.000  Cu
  Cu805    1.0000 0.10000  0.00000  0.20000  Biso   1.000  Cu
  Cu806    1.0000 0.15000  0.05000  0.20000  Biso   1.000  Cu
  Cu807    1.0000 0.15000  0.00000  0.25000  Biso   1.000  Cu
  Cu808    1.0000 0.10000  0.05000  0.25000  Biso   1.000  Cu
  Cu809    1.0000 0.20000  0.00000  0.20000  Biso   1.000  Cu
  Cu810    1.0000 0.25000  0.05000  0.20000  Biso   1.000  Cu
  Cu811    1.0000 0.25000  0.00000  0.25000  Biso   1.000  Cu
  Cu812    1.0000 0.20000  0.05000  0.25000  Biso   1.000  Cu
  Cu813    1.0000 0.30000  0.00000  0.20000  Biso   1.000  Cu
  Cu814    1.0000 0.35000  0.05000  0.20000  Biso   1.000  Cu
  Cu815    1.0000 0.35000  0.00000  0.25000  Biso   1.000  Cu
  Cu816    1.0000 0.30000  0.05000  0.25000  Biso   1.000  Cu
  Cu817    1.0000 0.40000  0.00000  0.20000  Biso   1.000  Cu
  Cu818    1.0000 0.45000  0.05000  0.20000  Biso   1.000  Cu
  Cu819    1.0000 0.45000  0.00000  0.25000  Biso   1.000  Cu
  Cu820    1.0000 0.40000  0.05000  0.25000  Biso   1.000  Cu
  Cu821    1.0000 0.50000  0.00000  0.20000  Biso   1.000  Cu
  Cu822    1.0000 0.55000  0.05000  0.20000  Biso   1.000  Cu
  Cu823    1.0000 0.55000  0.00000  0.25000  Biso   1.000  Cu
  Cu824    1.0000 0.50000  0.05000  0.25000  Biso   1.000  Cu
  Cu825    1.0000 0.60000  0.00000  0.20000  Biso   1.000  Cu
  Cu826    1.0000 0.65000  0.05000  0.20000  Biso   1.000  Cu
  Cu827    1.0000 0.65000  0.00000  0.25000  Biso   1.000  Cu
  Cu828    1.0000 0.60000  0.05000  0.25000  Biso   1.000  Cu
  Cu829    1.0000 0.70000  0.00000  0.20000  Biso   1.000  Cu
  Cu830    1.0000 0.75000  0.05000  0.20000  Biso   1.000  Cu
  Cu831    1.0000 0.75000  0.00000  0.25000  Biso   1.000  Cu
  Cu832    1.0000 0.70000  0.05000  0.25000  Biso   1.000  Cu
  Cu833    1.0000 0.80000  0.00000  0.20000  Biso   1.000  Cu
  Cu834    1.0000 0.85000  0.05000  0.20000  Biso   1.000  Cu
  Cu835    1.0000 0.85000  0.00000  0.25000  Biso   1.000  Cu
  Cu836    1.0000 0.80000  0.05000  0.25000  Biso   1.000  Cu
  Cu837    1.0000 0.90000  0.00000  0.20000  Biso   1.000  Cu
  Cu838    1.0000 0.95000  0.05000  0.20000  Biso   1.000  Cu
  Cu839    1.0000 0.95000  0.00000  0.25000  Biso   1.000  Cu
  Cu840    1.0000 0.90000  0.05000  0.25000  Biso   1.000  Cu
  Cu841    1.0000 0.00000  0.10000  0.20000  Biso   1.000  Cu
  Cu842    1.0000 0.05000  0.15000  0.20000  Biso   1.000  Cu
  Cu843    1.0000 0.05000  0.10000  0.25000  Biso   1.000  Cu
  Cu844    1.0000 0.00000  0.15000  0.25000  Biso   1.000  Cu
  Cu845    1.0000 0.10000  0.10000  0.20000  Biso   1.000  Cu
  Cu846    1.0000 0.15000  0.15000  0.20000  Biso   1.000  Cu
  Cu847    1.0000 0.15000  0.10000  0.25000  Biso   1.000  Cu
  Cu848    1.0000 0.10000  0.15000  0.25000  Biso   1.000  Cu
  Cu849    1.0000 0.20000  0.10000  0.20000  Biso   1.000  Cu
  Cu850    1.0000 0.25000  0.15000  0.20000  Biso   1.000  Cu
  Cu851    1.0000 0.25000  0.10000  0.25000  Biso   1.000  Cu
  Cu852    1.0000 0.20000  0.15000  0.25000  Biso   1.000  Cu
  Cu853    1.0000 0.30000  0.10000  0.20000  Biso   1.000  Cu
  Cu854    1.0000 0.35000  0.15000  0.20000  Biso   1.000  Cu
  Cu855    1.0000 0.35000  0.10000  0.25000  Biso   1.000  Cu
  Cu856    1.0000 0.30000  0.15000  0.25000  Biso   1.000  Cu
  Cu857    1.0000 0.40000  0.10000  0.20000  Biso   1.000  Cu
  Cu858    1.0000 0.45000  0.15000  0.20000  Biso   1.000  Cu
  Cu859    1.0000 0.45000  0.10000  0.25000  Biso   1.000  Cu
  Cu860    1.0000 0.40000  0.15000  0.25000  Biso   1.000  Cu
  Cu861    1.0000 0.50000  0.10000  0.20000  Biso   1.000  Cu
  Cu862    1.0000 0.55000  0.15000  0.20000  Biso   1.000  Cu
  Cu863    1.0000 0.55000  0.10000  0.25000  Biso   1.000  Cu
  Cu864    1.0000 0.50000  0.15000  0.25000  Biso   1.000  Cu
  Cu865    1.0000 0.60000  0.10000  0.20000  Biso   1.000  Cu
  Cu866    1.0000 0.65000  0.15000  0.20000  Biso   1.000  Cu
  Cu867    1.0000 0.65000  0.10000  0.25000  Biso   1.000  Cu
  Cu868    1.0000 0.60000  0.15000  0.25000  Biso   1.000  Cu
  Cu869    1.0000 0.70000  0.10000  0.20000  Biso   1.000  Cu
  Cu870    1.0000 0.75000  0.15000  0.20000  Biso   1.000  Cu
  Cu871    1.0000 0.75000  0.10000  0.25000  Biso   1.000  Cu
  Cu872    1.0000 0.70000  0.15000  0.25000  Biso   1.000  Cu
  Cu873    1.0000 0.80000  0.10000  0.20000  Biso   1.000  Cu
  Cu874    1.0000 0.85000  0.15000  0.20000  Biso   1.000  Cu
  Cu875    1.0000 0.85000  0.10000  0.25000  Biso   1.000  Cu
  Cu876    1.0000 0.80000  0.15000  0.25000  Biso   1.000  Cu
  Cu877    1.0000 0.90000  0.10000  0.20000  Biso   1.000  Cu
  Cu878    1.0000 0.95000  0.15000  0.20000  Biso   1.000  Cu
  Cu879    1.0000 0.95000  0.10000  0.25000  Biso   1.000  Cu
  Cu880    1.0000 0.90000  0.15000  0.25000  Biso   1.000  Cu
  Cu881    1.0000 0.00000  0.20000  0.20000  Biso   1.000  Cu
  Cu882    1.0000 0.05000  0.25000  0.20000  Biso   1.000  Cu
  Cu883    1.0000 0.05000  0.20000  0.25000  Biso   1.000  Cu
  Cu884    1.0000 0.00000  0.25000  0.25000  Biso   1.000  Cu
  Cu885    1.0000 0.10000  0.20000  0.20000  Biso   1.000  Cu
  Cu886    1.0000 0.15000  0.25000  0.20000  Biso   1.000  Cu
  Cu887    1.0000 0.15000  0.20000  0.25000  Biso   1.000  Cu
  Cu888    1.0000 0.10000  0.25000  0.25000  Biso   1.000  Cu
  Cu889    1.0000 0.20000  0.20000  0.20000  Biso   1.000  Cu
  Cu890    1.0000 0.25000  0.25000  0.20000  Biso   1.000  Cu
  Cu891    1.0000 0.25000  0.20000  0.25000  Biso   1.000  Cu
  Cu892    1.0000 0.20000  0.25000  0.25000  Biso   1.000  Cu
  Cu893    1.0000 0.30000  0.20000  0.20000  Biso   1.000  Cu
  Cu894    1.0000 0.35000  0.25000  0.20000  Biso   1.000  Cu
  Cu895    1.0000 0.35000  0.20000  0.25000  Biso   1.000  Cu
  Cu896    1.0000 0.30000  0.25000  0.25000  Biso   1.000  Cu
  Cu897    1.0000 0.40000  0.20000  0.20000  Biso   1.000  Cu
  Cu898    1.0000 0.45000  0.25000  0.20000  Biso   1.000  Cu
  Cu899    1.0000 0.45000  0.20000  0.25000  Biso   1.000  Cu
  Cu900    1.0000 0.40000  0.25000  0.25000  Biso   1.000  Cu
  Cu901    1.0000 0.50000  0.20000  0.20000  Biso   1.000  Cu
  Cu902    1.0000 0.55000  0.25000  0.20000  Biso   1.000  Cu
  Cu903    1.0000 0.55000  0.20000  0.25000  Biso   1.000  Cu
  Cu904    1.0000 0.50000  0.25000  0.25000  Biso   1.000  Cu
  Cu905    1.0000 0.60000  0.20000  0.20000  Biso   1.000  Cu
  Cu906    1.0000 0.65000  0.25000  0.20000  Biso   1.000  Cu
  Cu907    1.0000 0.65000  0.20000  0.25000  Biso   1.000  Cu
  Cu908    1.0000 0.60000  0.25000  0.25000  Biso   1.000  Cu
  Cu909    1.0000 0.70000  0.20000  0.20000  Biso   1.000  Cu
  Cu910    1.0000 0.75000  0.25000  0.20000  Biso   1.000  Cu
  Cu911    1.0000 0.75000  0.20000  0.25000  Biso   1.000  Cu
  Cu912    1.0000 0.70000  0.25000  0.25000  Biso   1.000  Cu
  Cu913    1.0000 0.80000  0.20000  0.20000  Biso   1.000  Cu
  Cu914    1.0000 0.85000  0.25000  0.20000  Biso   1.000  Cu
  Cu915    1.0000 0.85000  0.20000  0.25000  Biso   1.000  Cu
  Cu916    1.0000 0.80000  0.25000  0.25000  Biso   1.000  Cu
  Cu917    1.0000 0.90000  0.20000  0.20000  Biso   1.000  Cu
  Cu918    1.0000 0.95000  0.25000  0.20000  Biso   1.000  Cu
  Cu919    1.0000 0.95000  0.20000  0.25000  Biso   1.000  Cu
  Cu920    1.0000 0.90000  0.25000  0.25000  Biso   1.000  Cu
  Cu921    1.0000 0.00000  0.30000  0.20000  Biso   1.000  Cu
  Cu922    1.0000 0.05000  0.35000  0.20000  Biso   1.000  Cu
  Cu923    1.0000 0.05000  0.30000  0.25000  Biso   1.000  Cu
  Cu924    1.0000 0.00000  0.35000  0.25000  Biso   1.000  Cu
  Cu925    1.0000 0.10000  0.30000  0.20000  Biso   1.000  Cu
  Cu926    1.0000 0.15000  0.35000  0.20000  Biso   1.000  Cu
  Cu927    1.0000 0.15000  0.30000  0.25000  Biso   1.000  Cu
  Cu928    1.0000 0.10000  0.35000  0.25000  Biso   1.000  Cu
  Cu929    1.0000 0.20000  0.30000  0.20000  Biso   1.000  Cu
  Cu930    1.0000 0.25000  0.35000  0.20000  Biso   1.000  Cu
  Cu931    1.0000 0.25000  0.30000  0.25000  Biso   1.000  Cu
  Cu932    1.0000 0.20000  0.35000  0.25000  Biso   1.000  Cu
  Cu933    1.0000 0.30000  0.30000  0.20000  Biso   1.000  Cu
  Cu934    1.0000 0.35000  0.35000  0.20000  Biso   1.000  Cu
  Cu935    1.0000 0.35000  0.30000  0.25000  Biso   1.000  Cu
  Cu936    1.0000 0.30000  0.35000  0.25000  Biso   1.000  Cu
  Cu937    1.0000 0.40000  0.30000  0.20000  Biso   1.000  Cu
  Cu938    1.0000 0.45000  0.35000  0.20000  Biso   1.000  Cu
  Cu939    1.0000 0.45000  0.30000  0.25000  Biso   1.000  Cu
  Cu940    1.0000 0.40000  0.35000  0.25000  Biso   1.000  Cu
  Cu941    1.0000 0.50000  0.30000  0.20000  Biso   1.000  Cu
  Cu942    1.0000 0.55000  0.35000  0.20000  Biso   1.000  Cu
  Cu943    1.0000 0.55000  0.30000  0.25000  Biso   1.000  Cu
  Cu944    1.0000 0.50000  0.35000  0.25000  Biso   1.000  Cu
  Cu945    1.0000 0.60000  0.30000  0.20000  Biso   1.000  Cu
  Cu946    1.0000 0.65000  0.35000  0.20000  Biso   1.000  Cu
  Cu947    1.0000 0.65000  0.30000  0.25000  Biso   1.000  Cu
  Cu948    1.0000 0.60000  0.35000  0.25000  Biso   1.000  Cu
  Cu949    1.0000 0.70000  0.30000  0.20000  Biso   1.000  Cu
  Cu950    1.0000 0.75000  0.35000  0.20000  Biso   1.000  Cu
  Cu951    1.0000 0.75000  0.30000  0.25000  Biso   1.000  Cu
  Cu952    1.0000 0.70000  0.35000  0.25000  Biso   1.000  Cu
  Cu953    1.0000 0.80000  0.30000  0.20000  Biso   1.000  Cu
  Cu954    1.0000 0.85000  0.35000  0.20000  Biso   1.000  Cu
  Cu955    1.0000 0.85000  0.30000  0.25000  Biso   1.000  Cu
  Cu956    1.0000 0.80000  0.35000  0.25000  Biso   1.000  Cu
  Cu957    1.0000 0.90000  0.30000  0.20000  Biso   1.000  Cu
  Cu958    1.0000 0.95000  0.35000  0.20000  Biso   1.000  Cu
  Cu959    1.0000 0.95000  0.30000  0.25000  Biso   1.000  Cu
  Cu960    1.0000 0.90000  0.35000  0.25000  Biso   1.000  Cu
  Cu961    1.0000 0.00000  0.40000  0.20000  Biso   1.000  Cu
  Cu962    1.0000 0.05000  0.45000  0.20000  Biso   1.000  Cu
  Cu963    1.0000 0.05000  0.40000  0.25000  Biso   1.000  Cu
  Cu964    1.0000 0.00000  0.45000  0.25000  Biso   1.000  Cu
  Cu965    1.0000 0.10000  0.40000  0.20000  Biso   1.000  Cu
  Cu966    1.0000 0.15000  0.45000  0.20000  Biso   1.000  Cu
  Cu967    1.0000 0.15000  0.40000  0.25000  Biso   1.000  Cu
  Cu968    1.0000 0.10000  0.45000  0.25000  Biso   1.000  Cu
  Cu969    1.0000 0.20000  0.40000  0.20000  Biso   1.000  Cu
  Cu970    1.0000 0.25000  0.45000  0.20000  Biso   1.000  Cu
  Cu971    1.0000 0.25000  0.40000  0.25000  Biso   1.000  Cu
  Cu972    1.0000 0.20000  0.45000  0.25000  Biso   1.000  Cu
  Cu973    1.0000 0.30000  0.40000  0.20000  Biso   1.000  Cu
  Cu974    1.0000 0.35000  0.45000  0.20000  Biso   1.000  Cu
  Cu975    1.0000 0.35000  0.40000  0.25000  Biso   1.000  Cu
  Cu976    1.0000 0.30000  0.45000  0.25000  Biso   1.000  Cu
  Cu977    1.0000 0.40000  0.40000  0.20000  Biso   1.000  Cu
  Cu978    1.0000 0.45000  0.45000  0.20000  Biso   1.000  Cu
  Cu979    1.0000 0.45000  0.40000  0.25000  Biso   1.000  Cu
  Cu980    1.0000 0.40000  0.45000  0.25000  Biso   1.000  Cu
  Cu981    1.0000 0.50000  0.40000  0.20000  Biso   1.000  Cu
  Cu982    1.0000 0.55000  0.45000  0.20000  Biso   1.000  Cu
  Cu983    1.0000 0.55000  0.40000  0.25000  Biso   1.000  Cu
  Cu984    1.0000 0.50000  0.45000  0.25000  Biso   1.000  Cu
  Cu985    1.0000 0.60000  0.40000  0.20000  Biso   1.000  Cu
  Cu986    1.0000 0.65000  0.45000  0.20000  Biso   1.000  Cu
  Cu987    1.0000 0.65000  0.40000  0.25000  Biso   1.000  Cu
  Cu988    1.0000 0.60000  0.45000  0.25000  Biso   1.000  Cu
  Cu989    1.0000 0.70000  0.40000  0.20000  Biso   1.000  Cu
  Cu990    1.0000 0.75000  0.45000  0.20000  Biso   1.000  Cu
  Cu991    1.0000 0.75000  0.40000  0.25000  Biso   1.000  Cu
  Cu992    1.0000 0.70000  0.45000  0.25000  Biso   1.000  Cu
  Cu993    1.0000 0.80000  0.40000  0.20000  Biso   1.000  Cu
  Cu994    1.0000 0.85000  0.45000  0.20000  Biso   1.000  Cu
  Cu995    1.0000 0.85000  0.40000  0.25000  Biso   1.000  Cu
  Cu996    1.0000 0.80000  0.45000  0.25000  Biso   1.000  Cu
  Cu997    1.0000 0.90000  0.40000  0.20000  Biso   1.000  Cu
  Cu998    1.0000 0.95000  0.45000  0.20000  Biso   1.000  Cu
  Cu999    1.0000 0.95000  0.40000  0.25000  Biso   1.000  Cu
  Cu1000   1.0000 0.90000  0.45000  0.25000  Biso   1.000  Cu
  Cu1001   1.0000 0.00000  0.50000  0.20000  Biso   1.000  Cu
  Cu1002   1.0000 0.05000  0.55000  0.20000  Biso   1.000  Cu
  Cu1003   1.0000 0.05000  0.50000  0.25000  Biso   1.000  Cu
  Cu1004   1.0000 0.00000  0.55000  0.25000  Biso   1.000  Cu
  Cu1005   1.0000 0.10000  0.50000  0.20000  Biso   1.000  Cu
  Cu1006   1.0000 0.15000  0.55000  0.20000  Biso   1.000  Cu
  Cu1007   1.0000 0.15000  0.50000  0.25000  Biso   1.000  Cu
  Cu1008   1.0000 0.10000  0.55000  0.25000  Biso   1.000  Cu
  Cu1009   1.0000 0.20000  0.50000  0.20000  Biso   1.000  Cu
  Cu1010   1.0000 0.25000  0.55000  0.20000  Biso   1.000  Cu
  Cu1011   1.0000 0.25000  0.50000  0.25000  Biso   1.000  Cu
  Cu1012   1.0000 0.20000  0.55000  0.25000  Biso   1.000  Cu
  Cu1013   1.0000 0.30000  0.50000  0.20000  Biso   1.000  Cu
  Cu1014   1.0000 0.35000  0.55000  0.20000  Biso   1.000  Cu
  Cu1015   1.0000 0.35000  0.50000  0.25000  Biso   1.000  Cu
  Cu1016   1.0000 0.30000  0.55000  0.25000  Biso   1.000  Cu
  Cu1017   1.0000 0.40000  0.50000  0.20000  Biso   1.000  Cu
  Cu1018   1.0000 0.45000  0.55000  0.20000  Biso   1.000  Cu
  Cu1019   1.0000 0.45000  0.50000  0.25000  Biso   1.000  Cu
  Cu1020   1.0000 0.40000  0.55000  0.25000  Biso   1.000  Cu
  Cu1021   1.0000 0.50000  0.50000  0.20000  Biso   1.000  Cu
  Cu1022   1.0000 0.55000  0.55000  0.20000  Biso   1.000  Cu
  Cu1023   1.0000 0.55000  0.50000  0.25000  Biso   1.000  Cu
  Cu1024   1.0000 0.50000  0.55000  0.25000  Biso   1.000  Cu
  Cu1025   1.0000 0.60000  0.50000  0.20000  Biso   1.000  Cu
  Cu1026   1.0000 0.65000  0.55000  0.20000  Biso   1.000  Cu
  Cu1027   1.0000 0.65000  0.50000  0.25000  Biso   1.000  Cu
  Cu1028   1.0000 0.60000  0.55000  0.25000  Biso   1.000  Cu
  Cu1029   1.0000 0.70000  0.50000  0.20000  Biso   1.000  Cu
  Cu1030   1.0000 0.75000  0.55000  0.20000  Biso   1.000  Cu
  Cu1031   1.0000 0.75000  0.50000  0.25000  Biso   1.000  Cu
  Cu1032   1.0000 0.70000  0.55000  0.25000  Biso   1.000  Cu
  Cu1033   1.0000 0.80000  0.50000  0.20000  Biso   1.000  Cu
  Cu1034   1.0000 0.85000  0.55000  0.20000  Biso   1.000  Cu
  Cu1035   1.0000 0.85000  0.50000  0.25000  Biso   1.000  Cu
  Cu1036   1.0000 0.80000  0.55000  0.25000  Biso   1.000  Cu
  Cu1037   1.0000 0.90000  0.50000  0.20000  Biso   1.000  Cu
  Cu1038   1.0000 0.95000  0.55000  0.20000  Biso   1.000  Cu
  Cu1039   1.0000 0.95000  0.50000  0.25000  Biso   1.000  Cu
  Cu1040   1.0000 0.90000  0.55000  0.25000  Biso   1.000  Cu
  Cu1041   1.0000 0.00000  0.60000  0.20000  Biso   1.000  Cu
  Cu1042   1.0000 0.05000  0.65000  0.20000  Biso   1.000  Cu
  Cu1043   1.0000 0.05000  0.60000  0.25000  Biso   1.000  Cu
  Cu1044   1.0000 0.00000  0.65000  0.25000  Biso   1.000  Cu
  Cu1045   1.0000 0.10000  0.60000  0.20000  Biso   1.000  Cu
  Cu1046   1.0000 0.15000  0.65000  0.20000  Biso   1.000  Cu
  Cu1047   1.0000 0.15000  0.60000  0.25000  Biso   1.000  Cu
  Cu1048   1.0000 0.10000  0.65000  0.25000  Biso   1.000  Cu
  Cu1049   1.0000 0.20000  0.60000  0.20000  Biso   1.000  Cu
  Cu1050   1.0000 0.25000  0.65000  0.20000  Biso   1.000  Cu
  Cu1051   1.0000 0.25000  0.60000  0.25000  Biso   1.000  Cu
  Cu1052   1.0000 0.20000  0.65000  0.25000  Biso   1.000  Cu
  Cu1053   1.0000 0.30000  0.60000  0.20000  Biso   1.000  Cu
  Cu1054   1.0000 0.35000  0.65000  0.20000  Biso   1.000  Cu
  Cu1055   1.0000 0.35000  0.60000  0.25000  Biso   1.000  Cu
  Cu1056   1.0000 0.30000  0.65000  0.25000  Biso   1.000  Cu
  Cu1057   1.0000 0.40000  0.60000  0.20000  Biso   1.000  Cu
  Cu1058   1.0000 0.45000  0.65000  0.20000  Biso   1.000  Cu
  Cu1059   1.0000 0.45000  0.60000  0.25000  Biso   1.000  Cu
  Cu1060   1.0000 0.40000  0.65000  0.25000  Biso   1.000  Cu
  Cu1061   1.0000 0.50000  0.60000  0.20000  Biso   1.000  Cu
  Cu1062   1.0000 0.55000  0.65000  0.20000  Biso   1.000  Cu
  Cu1063   1.0000 0.55000  0.60000  0.25000  Biso   1.000  Cu
  Cu1064   1.0000 0.50000  0.65000  0.25000  Biso   1.000  Cu
  Cu1065   1.0000 0.60000  0.60000  0.20000  Biso   1.000  Cu
  Cu1066   1.0000 0.65000  0.65000  0.20000  Biso   1.000  Cu
  Cu1067   1.0000 0.65000  0.60000  0.25000  Biso   1.000  Cu
  Cu1068   1.0000 0.60000  0.65000  0.25000  Biso   1.000  Cu
  Cu1069   1.0000 0.70000  0.60000  0.20000  Biso   1.000  Cu
  Cu1070   1.0000 0.75000  0.65000  0.20000  Biso   1.000  Cu
  Cu1071   1.0000 0.75000  0.60000  0.25000  Biso   1.000  Cu
  Cu1072   1.0000 0.70000  0.65000  0.25000  Biso   1.000  Cu
  Cu1073   1.0000 0.80000  0.60000  0.20000  Biso   1.000  Cu
  Cu1074   1.0000 0.85000  0.65000  0.20000  Biso   1.000  Cu
  Cu1075   1.0000 0.85000  0.60000  0.25000  Biso   1.000  Cu
  Cu1076   1.0000 0.80000  0.65000  0.25000  Biso   1.000  Cu
  Cu1077   1.0000 0.90000  0.60000  0.20000  Biso   1.000  Cu
  Cu1078   1.0000 0.95000  0.65000  0.20000  Biso   1.000  Cu
  Cu1079   1.0000 0.95000  0.60000  0.25000  Biso   1.000  Cu
  Cu1080   1.0000 0.90000  0.65000  0.25000  Biso   1.000  Cu
  Cu1081   1.0000 0.00000  0.70000  0.20000  Biso   1.000  Cu
  Cu1082   1.0000 0.05000  0.75000  0.20000  Biso   1.000  Cu
  Cu1083   1.0000 0.05000  0.70000  0.25000  Biso   1.000  Cu
  Cu1084   1.0000 0.00000  0.75000  0.25000  Biso   1.000  Cu
  Cu1085   1.0000 0.10000  0.70000  0.20000  Biso   1.000  Cu
  Cu1086   1.0000 0.15000  0.75000  0.20000  Biso   1.000  Cu
  Cu1087   1.0000 0.15000  0.70000  0.25000  Biso   1.000  Cu
  Cu1088   1.0000 0.10000  0.75000  0.25000  Biso   1.000  Cu
  Cu1089   1.0000 0.20000  0.70000  0.20000  Biso   1.000  Cu
  Cu1090   1.0000 0.25000  0.75000  0.20000  Biso   1.000  Cu
  Cu1091   1.0000 0.25000  0.70000  0.25000  Biso   1.000  Cu
  Cu1092   1.0000 0.20000  0.75000  0.25000  Biso   1.000  Cu
  Cu1093   1.0000 0.30000  0.70000  0.20000  Biso   1.000  Cu
  Cu1094   1.0000 0.35000  0.75000  0.20000  Biso   1.000  Cu
  Cu1095   1.0000 0.35000  0.70000  0.25000  Biso   1.000  Cu
  Cu1096   1.0000 0.30000  0.75000  0.25000  Biso   1.000  Cu
  Cu1097   1.0000 0.40000  0.70000  0.20000  Biso   1.000  Cu
  Cu1098   1.0000 0.45000  0.75000  0.20000  Biso   1.000  Cu
  Cu1099   1.0000 0.45000  0.70000  0.25000  Biso   1.000  Cu
  Cu1100   1.0000 0.40000  0.75000  0.25000  Biso   1.000  Cu
  Cu1101   1.0000 0.50000  0.70000  0.20000  Biso   1.000  Cu
  Cu1102   1.0000 0.55000  0.75000  0.20000  Biso   1.000  Cu
  Cu1103   1.0000 0.55000  0.70000  0.25000  Biso   1.000  Cu
  Cu1104   1.0000 0.50000  0.75000  0.25000  Biso   1.000  Cu
  Cu1105   1.0000 0.60000  0.70000  0.20000  Biso   1.000  Cu
  Cu1106   1.0000 0.65000  0.75000  0.20000  Biso   1.000  Cu
  Cu1107   1.0000 0.65000  0.70000  0.25000  Biso   1.000  Cu
  Cu1108   1.0000 0.60000  0.75000  0.25000  Biso   1.000  Cu
  Cu1109   1.0000 0.70000  0.70000  0.20000  Biso   1.000  Cu
  Cu1110   1.0000 0.75000  0.75000  0.20000  Biso   1.000  Cu
  Cu1111   1.0000 0.75000  0.70000  0.25000  Biso   1.000  Cu
  Cu1112   1.0000 0.70000  0.75000  0.25000  Biso   1.000  Cu
  Cu1113   1.0000 0.80000  0.70000  0.20000  Biso   1.000  Cu
  Cu1114   1.0000 0.85000  0.75000  0.20000  Biso   1.000  Cu
  Cu1115   1.0000 0.85000  0.70000  0.25000  Biso   1.000  Cu
  Cu1116   1.0000 0.80000  0.75000  0.25000  Biso   1.000  Cu
  Cu1117   1.0000 0.90000  0.70000  0.20000  Biso   1.000  Cu
  Cu1118   1.0000 0.95000  0.75000  0.20000  Biso   1.000  Cu
  Cu1119   1.0000 0.95000  0.70000  0.25000  Biso   1.000  Cu
  Cu1120   1.0000 0.90000  0.75000  0.25000  Biso   1.000  Cu
  Cu1121   1.0000 0.00000  0.80000  0.20000  Biso   1.000  Cu
  Cu1122   1.0000 0.05000  0.85000  0.20000  Biso   1.000  Cu
  Cu1123   1.0000 0.05000  0.80000  0.25000  Biso   1.000  Cu
  Cu1124   1.0000 0.00000  0.85000  0.25000  Biso   1.000  Cu
  Cu1125   1.0000 0.10000  0.80000  0.20000  Biso   1.000  Cu
  Cu1126   1.0000 0.15000  0.85000  0.20000  Biso   1.000  Cu
  Cu1127   1.0000 0.15000  0.80000  0.25000  Biso   1.000  Cu
  Cu1128   1.0000 0.10000  0.85000  0.25000  Biso   1.000  Cu
  Cu1129   1.0000 0.20000  0.80000  0.20000  Biso   1.000  Cu
  Cu1130   1.0000 0.25000  0.85000  0.20000  Biso   1.000  Cu
  Cu1131   1.0000 0.25000  0.80000  0.25000  Biso   1.000  Cu
  Cu1132   1.0000 0.20000  0.85000  0.25000  Biso   1.000  Cu
  Cu1133   1.0000 0.30000  0.80000  0.20000  Biso   1.000  Cu
  Cu1134   1.0000 0.35000  0.85000  0.20000  Biso   1.000  Cu
  Cu1135   1.0000 0.35000  0.80000  0.25000  Biso   1.000  Cu
  Cu1136   1.0000 0.30000  0.85000  0.25000  Biso   1.000  Cu
  Cu1137   1.0000 0.40000  0.80000  0.20000  Biso   1.000  Cu
  Cu1138   1.0000 0.45000  0.85000  0.20000  Biso   1.000  Cu
  Cu1139   1.0000 0.45000  0.80000  0.25000  Biso   1.000  Cu
  Cu1140   1.0000 0.40000  0.85000  0.25000  Biso   1.000  Cu
  Cu1141   1.0000 0.50000  0.80000  0.20000  Biso   1.000  Cu
  Cu1142   1.0000 0.55000  0.85000  0.20000  Biso   1.000  Cu
  Cu1143   1.0000 0.55000  0.80000  0.25000  Biso   1.000  Cu
  Cu1144   1.0000 0.50000  0.85000  0.25000  Biso   1.000  Cu
  Cu1145   1.0000 0.60000  0.80000  0.20000  Biso   1.000  Cu
  Cu1146   1.0000 0.65000  0.85000  0.20000  Biso   1.000  Cu
  Cu1147   1.0000 0.65000  0.80000  0.25000  Biso   1.000  Cu
  Cu1148   1.0000 0.60000  0.85000  0.25000  Biso   1.000  Cu
  Cu1149   1.0000 0.70000  0.80000  0.20000  Biso   1.000  Cu
  Cu1150   1.0000 0.75000  0.85000  0.20000  Biso   1.000  Cu
  Cu1151   1.0000 0.75000  0.80000  0.25000  Biso   1.000  Cu
  Cu1152   1.0000 0.70000  0.85000  0.25000  Biso   1.000  Cu
  Cu1153   1.0000 0.80000  0.80000  0.20000  Biso   1.000  Cu
  Cu1154   1.0000 0.85000  0.85000  0.20000  Biso   1.000  Cu
  Cu1155   1.0000 0.85000  0.80000  0.25000  Biso   1.000  Cu
  Cu1156   1.0000 0.80000  0.85000  0.25000  Biso   1.000  Cu
  Cu1157   1.0000 0.90000  0.80000  0.20000  Biso   1.000  Cu
  Cu1158   1.0000 0.95000  0.85000  0.20000  Biso   1.000  Cu
  Cu1159   1.0000 0.95000  0.80000  0.25000  Biso   1.000  Cu
  Cu1160   1.0000 0.90000  0.85000  0.25000  Biso   1.000  Cu
  Cu1161   1.0000 0.00000  0.90000  0.20000  Biso   1.000  Cu
  Cu1162   1.0000 0.05000  0.95000  0.20000  Biso   1.000  Cu
  Cu1163   1.0000 0.05000  0.90000  0.25000  Biso   1.000  Cu
  Cu1164   1.0000 0.00000  0.95000  0.25000  Biso   1.000  Cu
  Cu1165   1.0000 0.10000  0.90000  0.20000  Biso   1.000  Cu
  Cu1166   1.0000 0.15000  0.95000  0.20000  Biso   1.000  Cu
  Cu1167   1.0000 0.15000  0.90000  0.25000  Biso   1.000  Cu
  Cu1168   1.0000 0.10000  0.95000  0.25000  Biso   1.000  Cu
  Cu1169   1.0000 0.20000  0.90000  0.20000  Biso   1.000  Cu
  Cu1170   1.0000 0.25000  0.95000  0.20000  Biso   1.000  Cu
  Cu1171   1.0000 0.25000  0.90000  0.25000  Biso   1.000  Cu
  Cu1172   1.0000 0.20000  0.95000  0.25000  Biso   1.000  Cu
  Cu1173   1.0000 0.30000  0.90000  0.20000  Biso   1.000  Cu
  Cu1174   1.0000 0.35000  0.95000  0.20000  Biso   1.000  Cu
  Cu1175   1.0000 0.35000  0.90000  0.25000  Biso   1.000  Cu
  Cu1176   1.0000 0.30000  0.95000  0.25000  Biso   1.000  Cu
  Cu1177   1.0000 0.40000  0.90000  0.20000  Biso   1.000  Cu
  Cu1178   1.0000 0.45000  0.95000  0.20000  Biso   1.000  Cu
  Cu1179   1.0000 0.45000  0.90000  0.25000  Biso   1.000  Cu
  Cu1180   1.0000 0.40000  0.95000  0.25000  Biso   1.000  Cu
  Cu1181   1.0000 0.50000  0.90000  0.20000  Biso   1.000  Cu
  Cu1182   1.0000 0.55000  0.95000  0.20000  Biso   1.000  Cu
  Cu1183   1.0000 0.55000  0.90000  0.25000  Biso   1.000  Cu
  Cu1184   1.0000 0.50000  0.95000  0.25000  Biso   1.000  Cu
  Cu1185   1.0000 0.60000  0.90000  0.20000  Biso   1.000  Cu
  Cu1186   1.0000 0.65000  0.95000  0.20000  Biso   1.000  Cu
  Cu1187   1.0000 0.65000  0.90000  0.25000  Biso   1.000  Cu
  Cu1188   1.0000 0.60000  0.95000  0.25000  Biso   1.000  Cu
  Cu1189   1.0000 0.70000  0.90000  0.20000  Biso   1.000  Cu
  Cu1190   1.0000 0.75000  0.95000  0.20000  Biso   1.000  Cu
  Cu1191   1.0000 0.75000  0.90000  0.25000  Biso   1.000  Cu
  Cu1192   1.0000 0.70000  0.95000  0.25000  Biso   1.000  Cu
  Cu1193   1.0000 0.80000  0.90000  0.20000  Biso   1.000  Cu
  Cu1194   1.0000 0.85000  0.95000  0.20000  Biso   1.000  Cu
  Cu1195   1.0000 0.85000  0.90000  0.25000  Biso   1.000  Cu
  Cu1196   1.0000 0.80000  0.95000  0.25000  Biso   1.000  Cu
  Cu1197   1.0000 0.90000  0.90000  0.20000  Biso   1.000  Cu
  Cu1198   1.0000 0.95000  0.95000  0.20000  Biso   1.000  Cu
  Cu1199   1.0000 0.95000  0.90000  0.25000  Biso   1.000  Cu
  Cu1200   1.0000 0.90000  0.95000  0.25000  Biso   1.000  Cu
  Cu1201   1.0000 0.00000  0.00000  0.30000  Biso   1.000  Cu
  Cu1202   1.0000 0.05000  0.05000  0.30000  Biso   1.000  Cu
  Cu1203   1.0000 0.05000  0.00000  0.35000  Biso   1.000  Cu
  Cu1204   1.0000 0.00000  0.05000  0.35000  Biso   1.000  Cu
  Cu1205   1.0000 0.10000  0.00000  0.30000  Biso   1.000  Cu
  Cu1206   1.0000 0.15000  0.05000  0.30000  Biso   1.000  Cu
  Cu1207   1.0000 0.15000  0.00000  0.35000  Biso   1.000  Cu
  Cu1208   1.0000 0.10000  0.05000  0.35000  Biso   1.000  Cu
  Cu1209   1.0000 0.20000  0.00000  0.30000  Biso   1.000  Cu
  Cu1210   1.0000 0.25000  0.05000  0.30000  Biso   1.000  Cu
  Cu1211   1.0000 0.25000  0.00000  0.35000  Biso   1.000  Cu
  Cu1212   1.0000 0.20000  0.05000  0.35000  Biso   1.000  Cu
  Cu1213   1.0000 0.30000  0.00000  0.30000  Biso   1.000  Cu
  Cu1214   1.0000 0.35000  0.05000  0.30000  Biso   1.000  Cu
  Cu1215   1.0000 0.35000  0.00000  0.35000  Biso   1.000  Cu
  Cu1216   1.0000 0.30000  0.05000  0.35000  Biso   1.000  Cu
  Cu1217   1.0000 0.40000  0.00000  0.30000  Biso   1.000  Cu
  Cu1218   1.0000 0.45000  0.05000  0.30000  Biso   1.000  Cu
  Cu1219   1.0000 0.45000  0.00000  0.35000  Biso   1.000  Cu
  Cu1220   1.0000 0.40000  0.05000  0.35000  Biso   1.000  Cu
  Cu1221   1.0000 0.50000  0.00000  0.30000  Biso   1.000  Cu
  Cu1222   1.0000 0.55000  0.05000  0.30000  Biso   1.000  Cu
  Cu1223   1.0000 0.55000  0.00000  0.35000  Biso   1.000  Cu
  Cu1224   1.0000 0.50000  0.05000  0.35000  Biso   1.000  Cu
  Cu1225   1.0000 0.60000  0.00000  0.30000  Biso   1.000  Cu
  Cu1226   1.0000 0.65000  0.05000  0.30000  Biso   1.000  Cu
  Cu1227   1.0000 0.65000  0.00000  0.35000  Biso   1.000  Cu
  Cu1228   1.0000 0.60000  0.05000  0.35000  Biso   1.000  Cu
  Cu1229   1.0000 0.70000  0.00000  0.30000  Biso   1.000  Cu
  Cu1230   1.0000 0.75000  0.05000  0.30000  Biso   1.000  Cu
  Cu1231   1.0000 0.75000  0.00000  0.35000  Biso   1.000  Cu
  Cu1232   1.0000 0.70000  0.05000  0.35000  Biso   1.000  Cu
  Cu1233   1.0000 0.80000  0.00000  0.30000  Biso   1.000  Cu
  Cu1234   1.0000 0.85000  0.05000  0.30000  Biso   1.000  Cu
  Cu1235   1.0000 0.85000  0.00000  0.35000  Biso   1.000  Cu
  Cu1236   1.0000 0.80000  0.05000  0.35000  Biso   1.000  Cu
  Cu1237   1.0000 0.90000  0.00000  0.30000  Biso   1.000  Cu
  Cu1238   1.0000 0.95000  0.05000  0.30000  Biso   1.000  Cu
  Cu1239   1.0000 0.95000  0.00000  0.35000  Biso   1.000  Cu
  Cu1240   1.0000 0.90000  0.05000  0.35000  Biso   1.000  Cu
  Cu1241   1.0000 0.00000  0.10000  0.30000  Biso   1.000  Cu
  Cu1242   1.0000 0.05000  0.15000  0.30000  Biso   1.000  Cu
  Cu1243   1.0000 0.05000  0.10000  0.35000  Biso   1.000  Cu
  Cu1244   1.0000 0.00000  0.15000  0.35000  Biso   1.000  Cu
  Cu1245   1.0000 0.10000  0.10000  0.30000  Biso   1.000  Cu
  Cu1246   1.0000 0.15000  0.15000  0.30000  Biso   1.000  Cu
  Cu1247   1.0000 0.15000  0.10000  0.35000  Biso   1.000  Cu
  Cu1248   1.0000 0.10000  0.15000  0.35000  Biso   1.000  Cu
  Cu1249   1.0000 0.20000  0.10000  0.30000  Biso   1.000  Cu
  Cu1250   1.0000 0.25000  0.15000  0.30000  Biso   1.000  Cu
  Cu1251   1.0000 0.25000  0.10000  0.35000  Biso   1.000  Cu
  Cu1252   1.0000 0.20000  0.15000  0.35000  Biso   1.000  Cu
  Cu1253   1.0000 0.30000  0.10000  0.30000  Biso   1.000  Cu
  Cu1254   1.0000 0.35000  0.15000  0.30000  Biso   1.000  Cu
  Cu1255   1.0000 0.35000  0.10000  0.35000  Biso   1.000  Cu
  Cu1256   1.0000 0.30000  0.15000  0.35000  Biso   1.000  Cu
  Cu1257   1.0000 0.40000  0.10000  0.30000  Biso   1.000  Cu
  Cu1258   1.0000 0.45000  0.15000  0.30000  Biso   1.000  Cu
  Cu1259   1.0000 0.45000  0.10000  0.35000  Biso   1.000  Cu
  Cu1260   1.0000 0.40000  0.15000  0.35000  Biso   1.000  Cu
  Cu1261   1.0000 0.50000  0.10000  0.30000  Biso   1.000  Cu
  Cu1262   1.0000 0.55000  0.15000  0.30000  Biso   1.000  Cu
  Cu1263   1.0000 0.55000  0.10000  0.35000  Biso   1.000  Cu
  Cu1264   1.0000 0.50000  0.15000  0.35000  Biso   1.000  Cu
  Cu1265   1.0000 0.60000  0.10000  0.30000  Biso   1.000  Cu
  Cu1266   1.0000 0.65000  0.15000  0.30000  Biso   1.000  Cu
  Cu1267   1.0000 0.65000  0.10000  0.35000  Biso   1.000  Cu
  Cu1268   1.0000 0.60000  0.15000  0.35000  Biso   1.000  Cu
  Cu1269   1.0000 0.70000  0.10000  0.30000  Biso   1.000  Cu
  Cu1270   1.0000 0.75000  0.15000  0.30000  Biso   1.000  Cu
  Cu1271   1.0000 0.75000  0.10000  0.35000  Biso   1.000  Cu
  Cu1272   1.0000 0.70000  0.15000  0.35000  Biso   1.000  Cu
  Cu1273   1.0000 0.80000  0.10000  0.30000  Biso   1.000  Cu
  Cu1274   1.0000 0.85000  0.15000  0.30000  Biso   1.000  Cu
  Cu1275   1.0000 0.85000  0.10000  0.35000  Biso   1.000  Cu
  Cu1276   1.0000 0.80000  0.15000  0.35000  Biso   1.000  Cu
  Cu1277   1.0000 0.90000  0.10000  0.30000  Biso   1.000  Cu
  Cu1278   1.0000 0.95000  0.15000  0.30000  Biso   1.000  Cu
  Cu1279   1.0000 0.95000  0.10000  0.35000  Biso   1.000  Cu
  Cu1280   1.0000 0.90000  0.15000  0.35000  Biso   1.000  Cu
  Cu1281   1.0000 0.00000  0.20000  0.30000  Biso   1.000  Cu
  Cu1282   1.0000 0.05000  0.25000  0.30000  Biso   1.000  Cu
  Cu1283   1.0000 0.05000  0.20000  0.35000  Biso   1.000  Cu
  Cu1284   1.0000 0.00000  0.25000  0.35000  Biso   1.000  Cu
  Cu1285   1.0000 0.10000  0.20000  0.30000  Biso   1.000  Cu
  Cu1286   1.0000 0.15000  0.25000  0.30000  Biso   1.000  Cu
  Cu1287   1.0000 0.15000  0.20000  0.35000  Biso   1.000  Cu
  Cu1288   1.0000 0.10000  0.25000  0.35000  Biso   1.000  Cu
  Cu1289   1.0000 0.20000  0.20000  0.30000  Biso   1.000  Cu
  Cu1290   1.0000 0.25000  0.25000  0.30000  Biso   1.000  Cu
  Cu1291   1.0000 0.25000  0.20000  0.35000  Biso   1.000  Cu
  Cu1292   1.0000 0.20000  0.25000  0.35000  Biso   1.000  Cu
  Cu1293   1.0000 0.30000  0.20000  0.30000  Biso   1.000  Cu
  Cu1294   1.0000 0.35000  0.25000  0.30000  Biso   1.000  Cu
  Cu1295   1.0000 0.35000  0.20000  0.35000  Biso   1.000  Cu
  Cu1296   1.0000 0.30000  0.25000  0.35000  Biso   1.000  Cu
  Cu1297   1.0000 0.40000  0.20000  0.30000  Biso   1.000  Cu
  Cu1298   1.0000 0.45000  0.25000  0.30000  Biso   1.000  Cu
  Cu1299   1.0000 0.45000  0.20000  0.35000  Biso   1.000  Cu
  Cu1300   1.0000 0.40000  0.25000  0.35000  Biso   1.000  Cu
  Cu1301   1.0000 0.50000  0.20000  0.30000  Biso   1.000  Cu
  Cu1302   1.0000 0.55000  0.25000  0.30000  Biso   1.000  Cu
  Cu1303   1.0000 0.55000  0.20000  0.35000  Biso   1.000  Cu
  Cu1304   1.0000 0.50000  0.25000  0.35000  Biso   1.000  Cu
  Cu1305   1.0000 0.60000  0.20000  0.30000  Biso   1.000  Cu
  Cu1306   1.0000 0.65000  0.25000  0.30000  Biso   1.000  Cu
  Cu1307   1.0000 0.65000  0.20000  0.35000  Biso   1.000  Cu
  Cu1308   1.0000 0.60000  0.25000  0.35000  Biso   1.000  Cu
  Cu1309   1.0000 0.70000  0.20000  0.30000  Biso   1.000  Cu
  Cu1310   1.0000 0.75000  0.25000  0.30000  Biso   1.000  Cu
  Cu1311   1.0000 0.75000  0.20000  0.35000  Biso   1.000  Cu
  Cu1312   1.0000 0.70000  0.25000  0.35000  Biso   1.000  Cu
  Cu1313   1.0000 0.80000  0.20000  0.30000  Biso   1.000  Cu
  Cu1314   1.0000 0.85000  0.25000  0.30000  Biso   1.000  Cu
  Cu1315   1.0000 0.85000  0.20000  0.35000  Biso   1.000  Cu
  Cu1316   1.0000 0.80000  0.25000  0.35000  Biso   1.000  Cu
  Cu1317   1.0000 0.90000  0.20000  0.30000  Biso   1.000  Cu
  Cu1318   1.0000 0.95000  0.25000  0.30000  Biso   1.000  Cu
  Cu1319   1.0000 0.95000  0.20000  0.35000  Biso   1.000  Cu
  Cu1320   1.0000 0.90000  0.25000  0.35000  Biso   1.000  Cu
  Cu1321   1.0000 0.00000  0.30000  0.30000  Biso   1.000  Cu
  Cu1322   1.0000 0.05000  0.35000  0.30000  Biso   1.000  Cu
  Cu1323   1.0000 0.05000  0.30000  0.35000  Biso   1.000  Cu
  Cu1324   1.0000 0.00000  0.35000  0.35000  Biso   1.000  Cu
  Cu1325   1.0000 0.10000  0.30000  0.30000  Biso   1.000  Cu
  Cu1326   1.0000 0.15000  0.35000  0.30000  Biso   1.000  Cu
  Cu1327   1.0000 0.15000  0.30000  0.35000  Biso   1.000  Cu
  Cu1328   1.0000 0.10000  0.35000  0.35000  Biso   1.000  Cu
  Cu1329   1.0000 0.20000  0.30000  0.30000  Biso   1.000  Cu
  Cu1330   1.0000 0.25000  0.35000  0.30000  Biso   1.000  Cu
  Cu1331   1.0000 0.25000  0.30000  0.35000  Biso   1.000  Cu
  Cu1332   1.0000 0.20000  0.35000  0.35000  Biso   1.000  Cu
  Cu1333   1.0000 0.30000  0.30000  0.30000  Biso   1.000  Cu
  Cu1334   1.0000 0.35000  0.35000  0.30000  Biso   1.000  Cu
  Cu1335   1.0000 0.35000  0.30000  0.35000  Biso   1.000  Cu
  Cu1336   1.0000 0.30000  0.35000  0.35000  Biso   1.000  Cu
  Cu1337   1.0000 0.40000  0.30000  0.30000  Biso   1.000  Cu
  Cu1338   1.0000 0.45000  0.35000  0.30000  Biso   1.000  Cu
  Cu1339   1.0000 0.45000  0.30000  0.35000  Biso   1.000  Cu
  Cu1340   1.0000 0.40000  0.35000  0.35000  Biso   1.000  Cu
  Cu1341   1.0000 0.50000  0.30000  0.30000  Biso   1.000  Cu
  Cu1342   1.0000 0.55000  0.35000  0.30000  Biso   1.000  Cu
  Cu1343   1.0000 0.55000  0.30000  0.35000  Biso   1.000  Cu
  Cu1344   1.0000 0.50000  0.35000  0.35000  Biso   1.000  Cu
  Cu1345   1.0000 0.60000  0.30000  0.30000  Biso   1.000  Cu
  Cu1346   1.0000 0.65000  0.35000  0.30000  Biso   1.000  Cu
  Cu1347   1.0000 0.65000  0.30000  0.35000  Biso   1.000  Cu
  Cu1348   1.0000 0.60000  0.35000  0.35000  Biso   1.000  Cu
  Cu1349   1.0000 0.70000  0.30000  0.30000  Biso   1.000  Cu
  Cu1350   1.0000 0.75000  0.35000  0.30000  Biso   1.000  Cu
  Cu1351   1.0000 0.75000  0.30000  0.35000  Biso   1.000  Cu
  Cu1352   1.0000 0.70000  0.35000  0.35000  Biso   1.000  Cu
  Cu1353   1.0000 0.80000  0.30000  0.30000  Biso   1.000  Cu
  Cu1354   1.0000 0.85000  0.35000  0.30000  Biso   1.000  Cu
  Cu1355   1.0000 0.85000  0.30000  0.35000  Biso   1.000  Cu
  Cu1356   1.0000 0.80000  0.35000  0.35000  Biso   1.000  Cu
  Cu1357   1.0000 0.90000  0.30000  0.30000  Biso   1.000  Cu
  Cu1358   1.0000 0.95000  0.35000  0.30000  Biso   1.000  Cu
  Cu1359   1.0000 0.95000  0.30000  0.35000  Biso   1.000  Cu
  Cu1360   1.0000 0.90000  0.35000  0.35000  Biso   1.000  Cu
  Cu1361   1.0000 0.00000  0.40000  0.30000  Biso   1.000  Cu
  Cu1362   1.0000 0.05000  0.45000  0.30000  Biso   1.000  Cu
  Cu1363   1.0000 0.05000  0.40000  0.35000  Biso   1.000  Cu
  Cu1364   1.0000 0.00000  0.45000  0.35000  Biso   1.000  Cu
  Cu1365   1.0000 0.10000  0.40000  0.30000  Biso   1.000  Cu
  Cu1366   1.0000 0.15000  0.45000  0.30000  Biso   1.000  Cu
  Cu1367   1.0000 0.15000  0.40000  0.35000  Biso   1.000  Cu
  Cu1368   1.0000 0.10000  0.45000  0.35000  Biso   1.000  Cu
  Cu1369   1.0000 0.20000  0.40000  0.30000  Biso   1.000  Cu
  Cu1370   1.0000 0.25000  0.45000  0.30000  Biso   1.000  Cu
  Cu1371   1.0000 0.25000  0.40000  0.35000  Biso   1.000  Cu
  Cu1372   1.0000 0.20000  0.45000  0.35000  Biso   1.000  Cu
  Cu1373   1.0000 0.30000  0.40000  0.30000  Biso   1.000  Cu
  Cu1374   1.0000 0.35000  0.45000  0.30000  Biso   1.000  Cu
  Cu1375   1.0000 0.35000  0.40000  0.35000  Biso   1.000  Cu
  Cu1376   1.0000 0.30000  0.45000  0.35000  Biso   1.000  Cu
  Cu1377   1.0000 0.40000  0.40000  0.30000  Biso   1.000  Cu
  Cu1378   1.0000 0.45000  0.45000  0.30000  Biso   1.000  Cu
  Cu1379   1.0000 0.45000  0.40000  0.35000  Biso   1.000  Cu
  Cu1380   1.0000 0.40000  0.45000  0.35000  Biso   1.000  Cu
  Cu1381   1.0000 0.50000  0.40000  0.30000  Biso   1.000  Cu
  Cu1382   1.0000 0.55000  0.45000  0.30000  Biso   1.000  Cu
  Cu1383   1.0000 0.55000  0.40000  0.35000  Biso   1.000  Cu
  Cu1384   1.0000 0.50000  0.45000  0.35000  Biso   1.000  Cu
  Cu1385   1.0000 0.60000  0.40000  0.30000  Biso   1.000  Cu
  Cu1386   1.0000 0.65000  0.45000  0.30000  Biso   1.000  Cu
  Cu1387   1.0000 0.65000  0.40000  0.35000  Biso   1.000  Cu
  Cu1388   1.0000 0.60000  0.45000  0.35000  Biso   1.000  Cu
  Cu1389   1.0000 0.70000  0.40000  0.30000  Biso   1.000  Cu
  Cu1390   1.0000 0.75000  0.45000  0.30000  Biso   1.000  Cu
  Cu1391   1.0000 0.75000  0.40000  0.35000  Biso   1.000  Cu
  Cu1392   1.0000 0.70000  0.45000  0.35000  Biso   1.000  Cu
  Cu1393   1.0000 0.80000  0.40000  0.30000  Biso   1.000  Cu
  Cu1394   1.0000 0.85000  0.45000  0.30000  Biso   1.000  Cu
  Cu1395   1.0000 0.85000  0.40000  0.35000  Biso   1.000  Cu
  Cu1396   1.0000 0.80000  0.45000  0.35000  Biso   1.000  Cu
  Cu1397   1.0000 0.90000  0.40000  0.30000  Biso   1.000  Cu
  Cu1398   1.0000 0.95000  0.45000  0.30000  Biso   1.000  Cu
  Cu1399   1.0000 0.95000  0.40000  0.35000  Biso   1.000  Cu
  Cu1400   1.0000 0.90000  0.45000  0.35000  Biso   1.000  Cu
  Cu1401   1.0000 0.00000  0.50000  0.30000  Biso   1.000  Cu
  Cu1402   1.0000 0.05000  0.55000  0.30000  Biso   1.000  Cu
  Cu1403   1.0000 0.05000  0.50000  0.35000  Biso   1.000  Cu
  Cu1404   1.0000 0.00000  0.55000  0.35000  Biso   1.000  Cu
  Cu1405   1.0000 0.10000  0.50000  0.30000  Biso   1.000  Cu
  Cu1406   1.0000 0.15000  0.55000  0.30000  Biso   1.000  Cu
  Cu1407   1.0000 0.15000  0.50000  0.35000  Biso   1.000  Cu
  Cu1408   1.0000 0.10000  0.55000  0.35000  Biso   1.000  Cu
  Cu1409   1.0000 0.20000  0.50000  0.30000  Biso   1.000  Cu
  Cu1410   1.0000 0.25000  0.55000  0.30000  Biso   1.000  Cu
  Cu1411   1.0000 0.25000  0.50000  0.35000  Biso   1.000  Cu
  Cu1412   1.0000 0.20000  0.55000  0.35000  Biso   1.000  Cu
  Cu1413   1.0000 0.30000  0.50000  0.30000  Biso   1.000  Cu
  Cu1414   1.0000 0.35000  0.55000  0.30000  Biso   1.000  Cu
  Cu1415   1.0000 0.35000  0.50000  0.35000  Biso   1.000  Cu
  Cu1416   1.0000 0.30000  0.55000  0.35000  Biso   1.000  Cu
  Cu1417   1.0000 0.40000  0.50000  0.30000  Biso   1.000  Cu
  Cu1418   1.0000 0.45000  0.55000  0.30000  Biso   1.000  Cu
  Cu1419   1.0000 0.45000  0.50000  0.35000  Biso   1.000  Cu
  Cu1420   1.0000 0.40000  0.55000  0.35000  Biso   1.000  Cu
  Cu1421   1.0000 0.50000  0.50000  0.30000  Biso   1.000  Cu
  Cu1422   1.0000 0.55000  0.55000  0.30000  Biso   1.000  Cu
  Cu1423   1.0000 0.55000  0.50000  0.35000  Biso   1.000  Cu
  Cu1424   1.0000 0.50000  0.55000  0.35000  Biso   1.000  Cu
  Cu1425   1.0000 0.60000  0.50000  0.30000  Biso   1.000  Cu
  Cu1426   1.0000 0.65000  0.55000  0.30000  Biso   1.000  Cu
  Cu1427   1.0000 0.65000  0.50000  0.35000  Biso   1.000  Cu
  Cu1428   1.0000 0.60000  0.55000  0.35000  Biso   1.000  Cu
  Cu1429   1.0000 0.70000  0.50000  0.30000  Biso   1.000  Cu
  Cu1430   1.0000 0.75000  0.55000  0.30000  Biso   1.000  Cu
  Cu1431   1.0000 0.75000  0.50000  0.35000  Biso   1.000  Cu
  Cu1432   1.0000 0.70000  0.55000  0.35000  Biso   1.000  Cu
  Cu1433   1.0000 0.80000  0.50000  0.30000  Biso   1.000  Cu
  Cu1434   1.0000 0.85000  0.55000  0.30000  Biso   1.000  Cu
  Cu1435   1.0000 0.85000  0.50000  0.35000  Biso   1.000  Cu
  Cu1436   1.0000 0.80000  0.55000  0.35000  Biso   1.000  Cu
  Cu1437   1.0000 0.90000  0.50000  0.30000  Biso   1.000  Cu
  Cu1438   1.0000 0.95000  0.55000  0.30000  Biso   1.000  Cu
  Cu1439   1.0000 0.95000  0.50000  0.35000  Biso   1.000  Cu
  Cu1440   1.0000 0.90000  0.55000  0.35000  Biso   1.000  Cu
  Cu1441   1.0000 0.00000  0.60000  0.30000  Biso   1.000  Cu
  Cu1442   1.0000 0.05000  0.65000  0.30000  Biso   1.000  Cu
  Cu1443   1.0000 0.05000  0.60000  0.35000  Biso   1.000  Cu
  Cu1444   1.0000 0.00000  0.65000  0.35000  Biso   1.000  Cu
  Cu1445   1.0000 0.10000  0.60000  0.30000  Biso   1.000  Cu
  Cu1446   1.0000 0.15000  0.65000  0.30000  Biso   1.000  Cu
  Cu1447   1.0000 0.15000  0.60000  0.35000  Biso   1.000  Cu
  Cu1448   1.0000 0.10000  0.65000  0.35000  Biso   1.000  Cu
  Cu1449   1.0000 0.20000  0.60000  0.30000  Biso   1.000  Cu
  Cu1450   1.0000 0.25000  0.65000  0.30000  Biso   1.000  Cu
  Cu1451   1.0000 0.25000  0.60000  0.35000  Biso   1.000  Cu
  Cu1452   1.0000 0.20000  0.65000  0.35000  Biso   1.000  Cu
  Cu1453   1.0000 0.30000  0.60000  0.30000  Biso   1.000  Cu
  Cu1454   1.0000 0.35000  0.65000  0.30000  Biso   1.000  Cu
  Cu1455   1.0000 0.35000  0.60000  0.35000  Biso   1.000  Cu
  Cu1456   1.0000 0.30000  0.65000  0.35000  Biso   1.000  Cu
  Cu1457   1.0000 0.40000  0.60000  0.30000  Biso   1.000  Cu
  Cu1458   1.0000 0.45000  0.65000  0.30000  Biso   1.000  Cu
  Cu1459   1.0000 0.45000  0.60000  0.35000  Biso   1.000  Cu
  Cu1460   1.0000 0.40000  0.65000  0.35000  Biso   1.000  Cu
  Cu1461   1.0000 0.50000  0.60000  0.30000  Biso   1.000  Cu
  Cu1462   1.0000 0.55000  0.65000  0.30000  Biso   1.000  Cu
  Cu1463   1.0000 0.55000  0.60000  0.35000  Biso   1.000  Cu
  Cu1464   1.0000 0.50000  0.65000  0.35000  Biso   1.000  Cu
  Cu1465   1.0000 0.60000  0.60000  0.30000  Biso   1.000  Cu
  Cu1466   1.0000 0.65000  0.65000  0.30000  Biso   1.000  Cu
  Cu1467   1.0000 0.65000  0.60000  0.35000  Biso   1.000  Cu
  Cu1468   1.0000 0.60000  0.65000  0.35000  Biso   1.000  Cu
  Cu1469   1.0000 0.70000  0.60000  0.30000  Biso   1.000  Cu
  Cu1470   1.0000 0.75000  0.65000  0.30000  Biso   1.000  Cu
  Cu1471   1.0000 0.75000  0.60000  0.35000  Biso   1.000  Cu
  Cu1472   1.0000 0.70000  0.65000  0.35000  Biso   1.000  Cu
  Cu1473   1.0000 0.80000  0.60000  0.30000  Biso   1.000  Cu
  Cu1474   1.0000 0.85000  0.65000  0.30000  Biso   1.000  Cu
  Cu1475   1.0000 0.85000  0.60000  0.35000  Biso   1.000  Cu
  Cu1476   1.0000 0.80000  0.65000  0.35000  Biso   1.000  Cu
  Cu1477   1.0000 0.90000  0.60000  0.30000  Biso   1.000  Cu
  Cu1478   1.0000 0.95000  0.65000  0.30000  Biso   1.000  Cu
  Cu1479   1.0000 0.95000  0.60000  0.35000  Biso   1.000  Cu
  Cu1480   1.0000 0.90000  0.65000  0.35000  Biso   1.000  Cu
  Cu1481   1.0000 0.00000  0.70000  0.30000  Biso   1.000  Cu
  Cu1482   1.0000 0.05000  0.75000  0.30000  Biso   1.000  Cu
  Cu1483   1.0000 0.05000  0.70000  0.35000  Biso   1.000  Cu
  Cu1484   1.0000 0.00000  0.75000  0.35000  Biso   1.000  Cu
  Cu1485   1.0000 0.10000  0.70000  0.30000  Biso   1.000  Cu
  Cu1486   1.0000 0.15000  0.75000  0.30000  Biso   1.000  Cu
  Cu1487   1.0000 0.15000  0.70000  0.35000  Biso   1.000  Cu
  Cu1488   1.0000 0.10000  0.75000  0.35000  Biso   1.000  Cu
  Cu1489   1.0000 0.20000  0.70000  0.30000  Biso   1.000  Cu
  Cu1490   1.0000 0.25000  0.75000  0.30000  Biso   1.000  Cu
  Cu1491   1.0000 0.25000  0.70000  0.35000  Biso   1.000  Cu
  Cu1492   1.0000 0.20000  0.75000  0.35000  Biso   1.000  Cu
  Cu1493   1.0000 0.30000  0.70000  0.30000  Biso   1.000  Cu
  Cu1494   1.0000 0.35000  0.75000  0.30000  Biso   1.000  Cu
  Cu1495   1.0000 0.35000  0.70000  0.35000  Biso   1.000  Cu
  Cu1496   1.0000 0.30000  0.75000  0.35000  Biso   1.000  Cu
  Cu1497   1.0000 0.40000  0.70000  0.30000  Biso   1.000  Cu
  Cu1498   1.0000 0.45000  0.75000  0.30000  Biso   1.000  Cu
  Cu1499   1.0000 0.45000  0.70000  0.35000  Biso   1.000  Cu
  Cu1500   1.0000 0.40000  0.75000  0.35000  Biso   1.000  Cu
  Cu1501   1.0000 0.50000  0.70000  0.30000  Biso   1.000  Cu
  Cu1502   1.0000 0.55000  0.75000  0.30000  Biso   1.000  Cu
  Cu1503   1.0000 0.55000  0.70000  0.35000  Biso   1.000  Cu
  Cu1504   1.0000 0.50000  0.75000  0.35000  Biso   1.000  Cu
  Cu1505   1.0000 0.60000  0.70000  0.30000  Biso   1.000  Cu
  Cu1506   1.0000 0.65000  0.75000  0.30000  Biso   1.000  Cu
  Cu1507   1.0000 0.65000  0.70000  0.35000  Biso   1.000  Cu
  Cu1508   1.0000 0.60000  0.75000  0.35000  Biso   1.000  Cu
  Cu1509   1.0000 0.70000  0.70000  0.30000  Biso   1.000  Cu
  Cu1510   1.0000 0.75000  0.75000  0.30000  Biso   1.000  Cu
  Cu1511   1.0000 0.75000  0.70000  0.35000  Biso   1.000  Cu
  Cu1512   1.0000 0.70000  0.75000  0.35000  Biso   1.000  Cu
  Cu1513   1.0000 0.80000  0.70000  0.30000  Biso   1.000  Cu
  Cu1514   1.0000 0.85000  0.75000  0.30000  Biso   1.000  Cu
  Cu1515   1.0000 0.85000  0.70000  0.35000  Biso   1.000  Cu
  Cu1516   1.0000 0.80000  0.75000  0.35000  Biso   1.000  Cu
  Cu1517   1.0000 0.90000  0.70000  0.30000  Biso   1.000  Cu
  Cu1518   1.0000 0.95000  0.75000  0.30000  Biso   1.000  Cu
  Cu1519   1.0000 0.95000  0.70000  0.35000  Biso   1.000  Cu
  Cu1520   1.0000 0.90000  0.75000  0.35000  Biso   1.000  Cu
  Cu1521   1.0000 0.00000  0.80000  0.30000  Biso   1.000  Cu
  Cu1522   1.0000 0.05000  0.85000  0.30000  Biso   1.000  Cu
  Cu1523   1.0000 0.05000  0.80000  0.35000  Biso   1.000  Cu
  Cu1524   1.0000 0.00000  0.85000  0.35000  Biso   1.000  Cu
  Cu1525   1.0000 0.10000  0.80000  0.30000  Biso   1.000  Cu
  Cu1526   1.0000 0.15000  0.85000  0.30000  Biso   1.000  Cu
  Cu1527   1.0000 0.15000  0.80000  0.35000  Biso   1.000  Cu
  Cu1528   1.0000 0.10000  0.85000  0.35000  Biso   1.000  Cu
  Cu1529   1.0000 0.20000  0.80000  0.30000  Biso   1.000  Cu
  Cu1530   1.0000 0.25000  0.85000  0.30000  Biso   1.000  Cu
  Cu1531   1.0000 0.25000  0.80000  0.35000  Biso   1.000  Cu
  Cu1532   1.0000 0.20000  0.85000  0.35000  Biso   1.000  Cu
  Cu1533   1.0000 0.30000  0.80000  0.30000  Biso   1.000  Cu
  Cu1534   1.0000 0.35000  0.85000  0.30000  Biso   1.000  Cu
  Cu1535   1.0000 0.35000  0.80000  0.35000  Biso   1.000  Cu
  Cu1536   1.0000 0.30000  0.85000  0.35000  Biso   1.000  Cu
  Cu1537   1.0000 0.40000  0.80000  0.30000  Biso   1.000  Cu
  Cu1538   1.0000 0.45000  0.85000  0.30000  Biso   1.000  Cu
  Cu1539   1.0000 0.45000  0.80000  0.35000  Biso   1.000  Cu
  Cu1540   1.0000 0.40000  0.85000  0.35000  Biso   1.000  Cu
  Cu1541   1.0000 0.50000  0.80000  0.30000  Biso   1.000  Cu
  Cu1542   1.0000 0.55000  0.85000  0.30000  Biso   1.000  Cu
  Cu1543   1.0000 0.55000  0.80000  0.35000  Biso   1.000  Cu
  Cu1544   1.0000 0.50000  0.85000  0.35000  Biso   1.000  Cu
  Cu1545   1.0000 0.60000  0.80000  0.30000  Biso   1.000  Cu
  Cu1546   1.0000 0.65000  0.85000  0.30000  Biso   1.000  Cu
  Cu1547   1.0000 0.65000  0.80000  0.35000  Biso   1.000  Cu
  Cu1548   1.0000 0.60000  0.85000  0.35000  Biso   1.000  Cu
  Cu1549   1.0000 0.70000  0.80000  0.30000  Biso   1.000  Cu
  Cu1550   1.0000 0.75000  0.85000  0.30000  Biso   1.000  Cu
  Cu1551   1.0000 0.75000  0.80000  0.35000  Biso   1.000  Cu
  Cu1552   1.0000 0.70000  0.85000  0.35000  Biso   1.000  Cu
  Cu1553   1.0000 0.80000  0.80000  0.30000  Biso   1.000  Cu
  Cu1554   1.0000 0.85000  0.85000  0.30000  Biso   1.000  Cu
  Cu1555   1.0000 0.85000  0.80000  0.35000  Biso   1.000  Cu
  Cu1556   1.0000 0.80000  0.85000  0.35000  Biso   1.000  Cu
  Cu1557   1.0000 0.90000  0.80000  0.30000  Biso   1.000  Cu
  Cu1558   1.0000 0.95000  0.85000  0.30000  Biso   1.000  Cu
  Cu1559   1.0000 0.95000  0.80000  0.35000  Biso   1.000  Cu
  Cu1560   1.0000 0.90000  0.85000  0.35000  Biso   1.000  Cu
  Cu1561   1.0000 0.00000  0.90000  0.30000  Biso   1.000  Cu
  Cu1562   1.0000 0.05000  0.95000  0.30000  Biso   1.000  Cu
  Cu1563   1.0000 0.05000  0.90000  0.35000  Biso   1.000  Cu
  Cu1564   1.0000 0.00000  0.95000  0.35000  Biso   1.000  Cu
  Cu1565   1.0000 0.10000  0.90000  0.30000  Biso   1.000  Cu
  Cu1566   1.0000 0.15000  0.95000  0.30000  Biso   1.000  Cu
  Cu1567   1.0000 0.15000  0.90000  0.35000  Biso   1.000  Cu
  Cu1568   1.0000 0.10000  0.95000  0.35000  Biso   1.000  Cu
  Cu1569   1.0000 0.20000  0.90000  0.30000  Biso   1.000  Cu
  Cu1570   1.0000 0.25000  0.95000  0.30000  Biso   1.000  Cu
  Cu1571   1.0000 0.25000  0.90000  0.35000  Biso   1.000  Cu
  Cu1572   1.0000 0.20000  0.95000  0.35000  Biso   1.000  Cu
  Cu1573   1.0000 0.30000  0.90000  0.30000  Biso   1.000  Cu
  Cu1574   1.0000 0.35000  0.95000  0.30000  Biso   1.000  Cu
  Cu1575   1.0000 0.35000  0.90000  0.35000  Biso   1.000  Cu
  Cu1576   1.0000 0.30000  0.95000  0.35000  Biso   1.000  Cu
  Cu1577   1.0000 0.40000  0.90000  0.30000  Biso   1.000  Cu
  Cu1578   1.0000 0.45000  0.95000  0.30000  Biso   1.000  Cu
  Cu1579   1.0000 0.45000  0.90000  0.35000  Biso   1.000  Cu
  Cu1580   1.0000 0.40000  0.95000  0.35000  Biso   1.000  Cu
  Cu1581   1.0000 0.50000  0.90000  0.30000  Biso   1.000  Cu
  Cu1582   1.0000 0.55000  0.95000  0.30000  Biso   1.000  Cu
  Cu1583   1.0000 0.55000  0.90000  0.35000  Biso   1.000  Cu
  Cu1584   1.0000 0.50000  0.95000  0.35000  Biso   1.000  Cu
  Cu1585   1.0000 0.60000  0.90000  0.30000  Biso   1.000  Cu
  Cu1586   1.0000 0.65000  0.95000  0.30000  Biso   1.000  Cu
  Cu1587   1.0000 0.65000  0.90000  0.35000  Biso   1.000  Cu
  Cu1588   1.0000 0.60000  0.95000  0.35000  Biso   1.000  Cu
  Cu1589   1.0000 0.70000  0.90000  0.30000  Biso   1.000  Cu
  Cu1590   1.0000 0.75000  0.95000  0.30000  Biso   1.000  Cu
  Cu1591   1.0000 0.75000  0.90000  0.35000  Biso   1.000  Cu
  Cu1592   1.0000 0.70000  0.95000  0.35000  Biso   1.000  Cu
  Cu1593   1.0000 0.80000  0.90000  0.30000  Biso   1.000  Cu
  Cu1594   1.0000 0.85000  0.95000  0.30000  Biso   1.000  Cu
  Cu1595   1.0000 0.85000  0.90000  0.35000  Biso   1.000  Cu
  Cu1596   1.0000 0.80000  0.95000  0.35000  Biso   1.000  Cu
  Cu1597   1.0000 0.90000  0.90000  0.30000  Biso   1.000  Cu
  Cu1598   1.0000 0.95000  0.95000  0.30000  Biso   1.000  Cu
  Cu1599   1.0000 0.95000  0.90000  0.35000  Biso   1.000  Cu
  Cu1600   1.0000 0.90000  0.95000  0.35000  Biso   1.000  Cu
  Cu1601   1.0000 0.00000  0.00000  0.40000  Biso   1.000  Cu
  Cu1602   1.0000 0.05000  0.05000  0.40000  Biso   1.000  Cu
  Cu1603   1.0000 0.05000  0.00000  0.45000  Biso   1.000  Cu
  Cu1604   1.0000 0.00000  0.05000  0.45000  Biso   1.000  Cu
  Cu1605   1.0000 0.10000  0.00000  0.40000  Biso   1.000  Cu
  Cu1606   1.0000 0.15000  0.05000  0.40000  Biso   1.000  Cu
  Cu1607   1.0000 0.15000  0.00000  0.45000  Biso   1.000  Cu
  Cu1608   1.0000 0.10000  0.05000  0.45000  Biso   1.000  Cu
  Cu1609   1.0000 0.20000  0.00000  0.40000  Biso   1.000  Cu
  Cu1610   1.0000 0.25000  0.05000  0.40000  Biso   1.000  Cu
  Cu1611   1.0000 0.25000  0.00000  0.45000  Biso   1.000  Cu
  Cu1612   1.0000 0.20000  0.05000  0.45000  Biso   1.000  Cu
  Cu1613   1.0000 0.30000  0.00000  0.40000  Biso   1.000  Cu
  Cu1614   1.0000 0.35000  0.05000  0.40000  Biso   1.000  Cu
  Cu1615   1.0000 0.35000  0.00000  0.45000  Biso   1.000  Cu
  Cu1616   1.0000 0.30000  0.05000  0.45000  Biso   1.000  Cu
  Cu1617   1.0000 0.40000  0.00000  0.40000  Biso   1.000  Cu
  Cu1618   1.0000 0.45000  0.05000  0.40000  Biso   1.000  Cu
  Cu1619   1.0000 0.45000  0.00000  0.45000  Biso   1.000  Cu
  Cu1620   1.0000 0.40000  0.05000  0.45000  Biso   1.000  Cu
  Cu1621   1.0000 0.50000  0.00000  0.40000  Biso   1.000  Cu
  Cu1622   1.0000 0.55000  0.05000  0.40000  Biso   1.000  Cu
  Cu1623   1.0000 0.55000  0.00000  0.45000  Biso   1.000  Cu
  Cu1624   1.0000 0.50000  0.05000  0.45000  Biso   1.000  Cu
  Cu1625   1.0000 0.60000  0.00000  0.40000  Biso   1.000  Cu
  Cu1626   1.0000 0.65000  0.05000  0.40000  Biso   1.000  Cu
  Cu1627   1.0000 0.65000  0.00000  0.45000  Biso   1.000  Cu
  Cu1628   1.0000 0.60000  0.05000  0.45000  Biso   1.000  Cu
  Cu1629   1.0000 0.70000  0.00000  0.40000  Biso   1.000  Cu
  Cu1630   1.0000 0.75000  0.05000  0.40000  Biso   1.000  Cu
  Cu1631   1.0000 0.75000  0.00000  0.45000  Biso   1.000  Cu
  Cu1632   1.0000 0.70000  0.05000  0.45000  Biso   1.000  Cu
  Cu1633   1.0000 0.80000  0.00000  0.40000  Biso   1.000  Cu
  Cu1634   1.0000 0.85000  0.05000  0.40000  Biso   1.000  Cu
  Cu1635   1.0000 0.85000  0.00000  0.45000  Biso   1.000  Cu
  Cu1636   1.0000 0.80000  0.05000  0.45000  Biso   1.000  Cu
  Cu1637   1.0000 0.90000  0.00000  0.40000  Biso   1.000  Cu
  Cu1638   1.0000 0.95000  0.05000  0.40000  Biso   1.000  Cu
  Cu1639   1.0000 0.95000  0.00000  0.45000  Biso   1.000  Cu
  Cu1640   1.0000 0.90000  0.05000  0.45000  Biso   1.000  Cu
  Cu1641   1.0000 0.00000  0.10000  0.40000  Biso   1.000  Cu
  Cu1642   1.0000 0.05000  0.15000  0.40000  Biso   1.000  Cu
  Cu1643   1.0000 0.05000  0.10000  0.45000  Biso   1.000  Cu
  Cu1644   1.0000 0.00000  0.15000  0.45000  Biso   1.000  Cu
  Cu1645   1.0000 0.10000  0.10000  0.40000  Biso   1.000  Cu
  Cu1646   1.0000 0.15000  0.15000  0.40000  Biso   1.000  Cu
  Cu1647   1.0000 0.15000  0.10000  0.45000  Biso   1.000  Cu
  Cu1648   1.0000 0.10000  0.15000  0.45000  Biso   1.000  Cu
  Cu1649   1.0000 0.20000  0.10000  0.40000  Biso   1.000  Cu
  Cu1650   1.0000 0.25000  0.15000  0.40000  Biso   1.000  Cu
  Cu1651   1.0000 0.25000  0.10000  0.45000  Biso   1.000  Cu
  Cu1652   1.0000 0.20000  0.15000  0.45000  Biso   1.000  Cu
  Cu1653   1.0000 0.30000  0.10000  0.40000  Biso   1.000  Cu
  Cu1654   1.0000 0.35000  0.15000  0.40000  Biso   1.000  Cu
  Cu1655   1.0000 0.35000  0.10000  0.45000  Biso   1.000  Cu
  Cu1656   1.0000 0.30000  0.15000  0.45000  Biso   1.000  Cu
  Cu1657   1.0000 0.40000  0.10000  0.40000  Biso   1.000  Cu
  Cu1658   1.0000 0.45000  0.15000  0.40000  Biso   1.000  Cu
  Cu1659   1.0000 0.45000  0.10000  0.45000  Biso   1.000  Cu
  Cu1660   1.0000 0.40000  0.15000  0.45000  Biso   1.000  Cu
  Cu1661   1.0000 0.50000  0.10000  0.40000  Biso   1.000  Cu
  Cu1662   1.0000 0.55000  0.15000  0.40000  Biso   1.000  Cu
  Cu1663   1.0000 0.55000  0.10000  0.45000  Biso   1.000  Cu
  Cu1664   1.0000 0.50000  0.15000  0.45000  Biso   1.000  Cu
  Cu1665   1.0000 0.60000  0.10000  0.40000  Biso   1.000  Cu
  Cu1666   1.0000 0.65000  0.15000  0.40000  Biso   1.000  Cu
  Cu1667   1.0000 0.65000  0.10000  0.45000  Biso   1.000  Cu
  Cu1668   1.0000 0.60000  0.15000  0.45000  Biso   1.000  Cu
  Cu1669   1.0000 0.70000  0.10000  0.40000  Biso   1.000  Cu
  Cu1670   1.0000 0.75000  0.15000  0.40000  Biso   1.000  Cu
  Cu1671   1.0000 0.75000  0.10000  0.45000  Biso   1.000  Cu
  Cu1672   1.0000 0.70000  0.15000  0.45000  Biso   1.000  Cu
  Cu1673   1.0000 0.80000  0.10000  0.40000  Biso   1.000  Cu
  Cu1674   1.0000 0.85000  0.15000  0.40000  Biso   1.000  Cu
  Cu1675   1.0000 0.85000  0.10000  0.45000  Biso   1.000  Cu
  Cu1676   1.0000 0.80000  0.15000  0.45000  Biso   1.000  Cu
  Cu1677   1.0000 0.90000  0.10000  0.40000  Biso   1.000  Cu
  Cu1678   1.0000 0.95000  0.15000  0.40000  Biso   1.000  Cu
  Cu1679   1.0000 0.95000  0.10000  0.45000  Biso   1.000  Cu
  Cu1680   1.0000 0.90000  0.15000  0.45000  Biso   1.000  Cu
  Cu1681   1.0000 0.00000  0.20000  0.40000  Biso   1.000  Cu
  Cu1682   1.0000 0.05000  0.25000  0.40000  Biso   1.000  Cu
  Cu1683   1.0000 0.05000  0.20000  0.45000  Biso   1.000  Cu
  Cu1684   1.0000 0.00000  0.25000  0.45000  Biso   1.000  Cu
  Cu1685   1.0000 0.10000  0.20000  0.40000  Biso   1.000  Cu
  Cu1686   1.0000 0.15000  0.25000  0.40000  Biso   1.000  Cu
  Cu1687   1.0000 0.15000  0.20000  0.45000  Biso   1.000  Cu
  Cu1688   1.0000 0.10000  0.25000  0.45000  Biso   1.000  Cu
  Cu1689   1.0000 0.20000  0.20000  0.40000  Biso   1.000  Cu
  Cu1690   1.0000 0.25000  0.25000  0.40000  Biso   1.000  Cu
  Cu1691   1.0000 0.25000  0.20000  0.45000  Biso   1.000  Cu
  Cu1692   1.0000 0.20000  0.25000  0.45000  Biso   1.000  Cu
  Cu1693   1.0000 0.30000  0.20000  0.40000  Biso   1.000  Cu
  Cu1694   1.0000 0.35000  0.25000  0.40000  Biso   1.000  Cu
  Cu1695   1.0000 0.35000  0.20000  0.45000  Biso   1.000  Cu
  Cu1696   1.0000 0.30000  0.25000  0.45000  Biso   1.000  Cu
  Cu1697   1.0000 0.40000  0.20000  0.40000  Biso   1.000  Cu
  Cu1698   1.0000 0.45000  0.25000  0.40000  Biso   1.000  Cu
  Cu1699   1.0000 0.45000  0.20000  0.45000  Biso   1.000  Cu
  Cu1700   1.0000 0.40000  0.25000  0.45000  Biso   1.000  Cu
  Cu1701   1.0000 0.50000  0.20000  0.40000  Biso   1.000  Cu
  Cu1702   1.0000 0.55000  0.25000  0.40000  Biso   1.000  Cu
  Cu1703   1.0000 0.55000  0.20000  0.45000  Biso   1.000  Cu
  Cu1704   1.0000 0.50000  0.25000  0.45000  Biso   1.000  Cu
  Cu1705   1.0000 0.60000  0.20000  0.40000  Biso   1.000  Cu
  Cu1706   1.0000 0.65000  0.25000  0.40000  Biso   1.000  Cu
  Cu1707   1.0000 0.65000  0.20000  0.45000  Biso   1.000  Cu
  Cu1708   1.0000 0.60000  0.25000  0.45000  Biso   1.000  Cu
  Cu1709   1.0000 0.70000  0.20000  0.40000  Biso   1.000  Cu
  Cu1710   1.0000 0.75000  0.25000  0.40000  Biso   1.000  Cu
  Cu1711   1.0000 0.75000  0.20000  0.45000  Biso   1.000  Cu
  Cu1712   1.0000 0.70000  0.25000  0.45000  Biso   1.000  Cu
  Cu1713   1.0000 0.80000  0.20000  0.40000  Biso   1.000  Cu
  Cu1714   1.0000 0.85000  0.25000  0.40000  Biso   1.000  Cu
  Cu1715   1.0000 0.85000  0.20000  0.45000  Biso   1.000  Cu
  Cu1716   1.0000 0.80000  0.25000  0.45000  Biso   1.000  Cu
  Cu1717   1.0000 0.90000  0.20000  0.40000  Biso   1.000  Cu
  Cu1718   1.0000 0.95000  0.25000  0.40000  Biso   1.000  Cu
  Cu1719   1.0000 0.95000  0.20000  0.45000  Biso   1.000  Cu
  Cu1720   1.0000 0.90000  0.25000  0.45000  Biso   1.000  Cu
  Cu1721   1.0000 0.00000  0.30000  0.40000  Biso   1.000  Cu
  Cu1722   1.0000 0.05000  0.35000  0.40000  Biso   1.000  Cu
  Cu1723   1.0000 0.05000  0.30000  0.45000  Biso   1.000  Cu
  Cu1724   1.0000 0.00000  0.35000  0.45000  Biso   1.000  Cu
  Cu1725   1.0000 0.10000  0.30000  0.40000  Biso   1.000  Cu
  Cu1726   1.0000 0.15000  0.35000  0.40000  Biso   1.000  Cu
  Cu1727   1.0000 0.15000  0.30000  0.45000  Biso   1.000  Cu
  Cu1728   1.0000 0.10000  0.35000  0.45000  Biso   1.000  Cu
  Cu1729   1.0000 0.20000  0.30000  0.40000  Biso   1.000  Cu
  Cu1730   1.0000 0.25000  0.35000  0.40000  Biso   1.000  Cu
  Cu1731   1.0000 0.25000  0.30000  0.45000  Biso   1.000  Cu
  Cu1732   1.0000 0.20000  0.35000  0.45000  Biso   1.000  Cu
  Cu1733   1.0000 0.30000  0.30000  0.40000  Biso   1.000  Cu
  Cu1734   1.0000 0.35000  0.35000  0.40000  Biso   1.000  Cu
  Cu1735   1.0000 0.35000  0.30000  0.45000  Biso   1.000  Cu
  Cu1736   1.0000 0.30000  0.35000  0.45000  Biso   1.000  Cu
  Cu1737   1.0000 0.40000  0.30000  0.40000  Biso   1.000  Cu
  Cu1738   1.0000 0.45000  0.35000  0.40000  Biso   1.000  Cu
  Cu1739   1.0000 0.45000  0.30000  0.45000  Biso   1.000  Cu
  Cu1740   1.0000 0.40000  0.35000  0.45000  Biso   1.000  Cu
  Cu1741   1.0000 0.50000  0.30000  0.40000  Biso   1.000  Cu
  Cu1742   1.0000 0.55000  0.35000  0.40000  Biso   1.000  Cu
  Cu1743   1.0000 0.55000  0.30000  0.45000  Biso   1.000  Cu
  Cu1744   1.0000 0.50000  0.35000  0.45000  Biso   1.000  Cu
  Cu1745   1.0000 0.60000  0.30000  0.40000  Biso   1.000  Cu
  Cu1746   1.0000 0.65000  0.35000  0.40000  Biso   1.000  Cu
  Cu1747   1.0000 0.65000  0.30000  0.45000  Biso   1.000  Cu
  Cu1748   1.0000 0.60000  0.35000  0.45000  Biso   1.000  Cu
  Cu1749   1.0000 0.70000  0.30000  0.40000  Biso   1.000  Cu
  Cu1750   1.0000 0.75000  0.35000  0.40000  Biso   1.000  Cu
  Cu1751   1.0000 0.75000  0.30000  0.45000  Biso   1.000  Cu
  Cu1752   1.0000 0.70000  0.35000  0.45000  Biso   1.000  Cu
  Cu1753   1.0000 0.80000  0.30000  0.40000  Biso   1.000  Cu
  Cu1754   1.0000 0.85000  0.35000  0.40000  Biso   1.000  Cu
  Cu1755   1.0000 0.85000  0.30000  0.45000  Biso   1.000  Cu
  Cu1756   1.0000 0.80000  0.35000  0.45000  Biso   1.000  Cu
  Cu1757   1.0000 0.90000  0.30000  0.40000  Biso   1.000  Cu
  Cu1758   1.0000 0.95000  0.35000  0.40000  Biso   1.000  Cu
  Cu1759   1.0000 0.95000  0.30000  0.45000  Biso   1.000  Cu
  Cu1760   1.0000 0.90000  0.35000  0.45000  Biso   1.000  Cu
  Cu1761   1.0000 0.00000  0.40000  0.40000  Biso   1.000  Cu
  Cu1762   1.0000 0.05000  0.45000  0.40000  Biso   1.000  Cu
  Cu1763   1.0000 0.05000  0.40000  0.45000  Biso   1.000  Cu
  Cu1764   1.0000 0.00000  0.45000  0.45000  Biso   1.000  Cu
  Cu1765   1.0000 0.10000  0.40000  0.40000  Biso   1.000  Cu
  Cu1766   1.0000 0.15000  0.45000  0.40000  Biso   1.000  Cu
  Cu1767   1.0000 0.15000  0.40000  0.45000  Biso   1.000  Cu
  Cu1768   1.0000 0.10000  0.45000  0.45000  Biso   1.000  Cu
  Cu1769   1.0000 0.20000  0.40000  0.40000  Biso   1.000  Cu
  Cu1770   1.0000 0.25000  0.45000  0.40000  Biso   1.000  Cu
  Cu1771   1.0000 0.25000  0.40000  0.45000  Biso   1.000  Cu
  Cu1772   1.0000 0.20000  0.45000  0.45000  Biso   1.000  Cu
  Cu1773   1.0000 0.30000  0.40000  0.40000  Biso   1.000  Cu
  Cu1774   1.0000 0.35000  0.45000  0.40000  Biso   1.000  Cu
  Cu1775   1.0000 0.35000  0.40000  0.45000  Biso   1.000  Cu
  Cu1776   1.0000 0.30000  0.45000  0.45000  Biso   1.000  Cu
  Cu1777   1.0000 0.40000  0.40000  0.40000  Biso   1.000  Cu
  Cu1778   1.0000 0.45000  0.45000  0.40000  Biso   1.000  Cu
  Cu1779   1.0000 0.45000  0.40000  0.45000  Biso   1.000  Cu
  Cu1780   1.0000 0.40000  0.45000  0.45000  Biso   1.000  Cu
  Cu1781   1.0000 0.50000  0.40000  0.40000  Biso   1.000  Cu
  Cu1782   1.0000 0.55000  0.45000  0.40000  Biso   1.000  Cu
  Cu1783   1.0000 0.55000  0.40000  0.45000  Biso   1.000  Cu
  Cu1784   1.0000 0.50000  0.45000  0.45000  Biso   1.000  Cu
  Cu1785   1.0000 0.60000  0.40000  0.40000  Biso   1.000  Cu
  Cu1786   1.0000 0.65000  0.45000  0.40000  Biso   1.000  Cu
  Cu1787   1.0000 0.65000  0.40000  0.45000  Biso   1.000  Cu
  Cu1788   1.0000 0.60000  0.45000  0.45000  Biso   1.000  Cu
  Cu1789   1.0000 0.70000  0.40000  0.40000  Biso   1.000  Cu
  Cu1790   1.0000 0.75000  0.45000  0.40000  Biso   1.000  Cu
  Cu1791   1.0000 0.75000  0.40000  0.45000  Biso   1.000  Cu
  Cu1792   1.0000 0.70000  0.45000  0.45000  Biso   1.000  Cu
  Cu1793   1.0000 0.80000  0.40000  0.40000  Biso   1.000  Cu
  Cu1794   1.0000 0.85000  0.45000  0.40000  Biso   1.000  Cu
  Cu1795   1.0000 0.85000  0.40000  0.45000  Biso   1.000  Cu
  Cu1796   1.0000 0.80000  0.45000  0.45000  Biso   1.000  Cu
  Cu1797   1.0000 0.90000  0.40000  0.40000  Biso   1.000  Cu
  Cu1798   1.0000 0.95000  0.45000  0.40000  Biso   1.000  Cu
  Cu1799   1.0000 0.95000  0.40000  0.45000  Biso   1.000  Cu
  Cu1800   1.0000 0.90000  0.45000  0.45000  Biso   1.000  Cu
  Cu1801   1.0000 0.00000  0.50000  0.40000  Biso   1.000  Cu
  Cu1802   1.0000 0.05000  0.55000  0.40000  Biso   1.000  Cu
  Cu1803   1.0000 0.05000  0.50000  0.45000  Biso   1.000  Cu
  Cu1804   1.0000 0.00000  0.55000  0.45000  Biso   1.000  Cu
  Cu1805   1.0000 0.10000  0.50000  0.40000  Biso   1.000  Cu
  Cu1806   1.0000 0.15000  0.55000  0.40000  Biso   1.000  Cu
  Cu1807   1.0000 0.15000  0.50000  0.45000  Biso   1.000  Cu
  Cu1808   1.0000 0.10000  0.55000  0.45000  Biso   1.000  Cu
  Cu1809   1.0000 0.20000  0.50000  0.40000  Biso   1.000  Cu
  Cu1810   1.0000 0.25000  0.55000  0.40000  Biso   1.000  Cu
  Cu1811   1.0000 0.25000  0.50000  0.45000  Biso   1.000  Cu
  Cu1812   1.0000 0.20000  0.55000  0.45000  Biso   1.000  Cu
  Cu1813   1.0000 0.30000  0.50000  0.40000  Biso   1.000  Cu
  Cu1814   1.0000 0.35000  0.55000  0.40000  Biso   1.000  Cu
  Cu1815   1.0000 0.35000  0.50000  0.45000  Biso   1.000  Cu
  Cu1816   1.0000 0.30000  0.55000  0.45000  Biso   1.000  Cu
  Cu1817   1.0000 0.40000  0.50000  0.40000  Biso   1.000  Cu
  Cu1818   1.0000 0.45000  0.55000  0.40000  Biso   1.000  Cu
  Cu1819   1.0000 0.45000  0.50000  0.45000  Biso   1.000  Cu
  Cu1820   1.0000 0.40000  0.55000  0.45000  Biso   1.000  Cu
  Cu1821   1.0000 0.50000  0.50000  0.40000  Biso   1.000  Cu
  Cu1822   1.0000 0.55000  0.55000  0.40000  Biso   1.000  Cu
  Cu1823   1.0000 0.55000  0.50000  0.45000  Biso   1.000  Cu
  Cu1824   1.0000 0.50000  0.55000  0.45000  Biso   1.000  Cu
  Cu1825   1.0000 0.60000  0.50000  0.40000  Biso   1.000  Cu
  Cu1826   1.0000 0.65000  0.55000  0.40000  Biso   1.000  Cu
  Cu1827   1.0000 0.65000  0.50000  0.45000  Biso   1.000  Cu
  Cu1828   1.0000 0.60000  0.55000  0.45000  Biso   1.000  Cu
  Cu1829   1.0000 0.70000  0.50000  0.40000  Biso   1.000  Cu
  Cu1830   1.0000 0.75000  0.55000  0.40000  Biso   1.000  Cu
  Cu1831   1.0000 0.75000  0.50000  0.45000  Biso   1.000  Cu
  Cu1832   1.0000 0.70000  0.55000  0.45000  Biso   1.000  Cu
  Cu1833   1.0000 0.80000  0.50000  0.40000  Biso   1.000  Cu
  Cu1834   1.0000 0.85000  0.55000  0.40000  Biso   1.000  Cu
  Cu1835   1.0000 0.85000  0.50000  0.45000  Biso   1.000  Cu
  Cu1836   1.0000 0.80000  0.55000  0.45000  Biso   1.000  Cu
  Cu1837   1.0000 0.90000  0.50000  0.40000  Biso   1.000  Cu
  Cu1838   1.0000 0.95000  0.55000  0.40000  Biso   1.000  Cu
  Cu1839   1.0000 0.95000  0.50000  0.45000  Biso   1.000  Cu
  Cu1840   1.0000 0.90000  0.55000  0.45000  Biso   1.000  Cu
  Cu1841   1.0000 0.00000  0.60000  0.40000  Biso   1.000  Cu
  Cu1842   1.0000 0.05000  0.65000  0.40000  Biso   1.000  Cu
  Cu1843   1.0000 0.05000  0.60000  0.45000  Biso   1.000  Cu
  Cu1844   1.0000 0.00000  0.65000  0.45000  Biso   1.000  Cu
  Cu1845   1.0000 0.10000  0.60000  0.40000  Biso   1.000  Cu
  Cu1846   1.0000 0.15000  0.65000  0.40000  Biso   1.000  Cu
  Cu1847   1.0000 0.15000  0.60000  0.45000  Biso   1.000  Cu
  Cu1848   1.0000 0.10000  0.65000  0.45000  Biso   1.000  Cu
  Cu1849   1.0000 0.20000  0.60000  0.40000  Biso   1.000  Cu
  Cu1850   1.0000 0.25000  0.65000  0.40000  Biso   1.000  Cu
  Cu1851   1.0000 0.25000  0.60000  0.45000  Biso   1.000  Cu
  Cu1852   1.0000 0.20000  0.65000  0.45000  Biso   1.000  Cu
  Cu1853   1.0000 0.30000  0.60000  0.40000  Biso   1.000  Cu
  Cu1854   1.0000 0.35000  0.65000  0.40000  Biso   1.000  Cu
  Cu1855   1.0000 0.35000  0.60000  0.45000  Biso   1.000  Cu
  Cu1856   1.0000 0.30000  0.65000  0.45000  Biso   1.000  Cu
  Cu1857   1.0000 0.40000  0.60000  0.40000  Biso   1.000  Cu
  Cu1858   1.0000 0.45000  0.65000  0.40000  Biso   1.000  Cu
  Cu1859   1.0000 0.45000  0.60000  0.45000  Biso   1.000  Cu
  Cu1860   1.0000 0.40000  0.65000  0.45000  Biso   1.000  Cu
  Cu1861   1.0000 0.50000  0.60000  0.40000  Biso   1.000  Cu
  Cu1862   1.0000 0.55000  0.65000  0.40000  Biso   1.000  Cu
  Cu1863   1.0000 0.55000  0.60000  0.45000  Biso   1.000  Cu
  Cu1864   1.0000 0.50000  0.65000  0.45000  Biso   1.000  Cu
  Cu1865   1.0000 0.60000  0.60000  0.40000  Biso   1.000  Cu
  Cu1866   1.0000 0.65000  0.65000  0.40000  Biso   1.000  Cu
  Cu1867   1.0000 0.65000  0.60000  0.45000  Biso   1.000  Cu
  Cu1868   1.0000 0.60000  0.65000  0.45000  Biso   1.000  Cu
  Cu1869   1.0000 0.70000  0.60000  0.40000  Biso   1.000  Cu
  Cu1870   1.0000 0.75000  0.65000  0.40000  Biso   1.000  Cu
  Cu1871   1.0000 0.75000  0.60000  0.45000  Biso   1.000  Cu
  Cu1872   1.0000 0.70000  0.65000  0.45000  Biso   1.000  Cu
  Cu1873   1.0000 0.80000  0.60000  0.40000  Biso   1.000  Cu
  Cu1874   1.0000 0.85000  0.65000  0.40000  Biso   1.000  Cu
  Cu1875   1.0000 0.85000  0.60000  0.45000  Biso   1.000  Cu
  Cu1876   1.0000 0.80000  0.65000  0.45000  Biso   1.000  Cu
  Cu1877   1.0000 0.90000  0.60000  0.40000  Biso   1.000  Cu
  Cu1878   1.0000 0.95000  0.65000  0.40000  Biso   1.000  Cu
  Cu1879   1.0000 0.95000  0.60000  0.45000  Biso   1.000  Cu
  Cu1880   1.0000 0.90000  0.65000  0.45000  Biso   1.000  Cu
  Cu1881   1.0000 0.00000  0.70000  0.40000  Biso   1.000  Cu
  Cu1882   1.0000 0.05000  0.75000  0.40000  Biso   1.000  Cu
  Cu1883   1.0000 0.05000  0.70000  0.45000  Biso   1.000  Cu
  Cu1884   1.0000 0.00000  0.75000  0.45000  Biso   1.000  Cu
  Cu1885   1.0000 0.10000  0.70000  0.40000  Biso   1.000  Cu
  Cu1886   1.0000 0.15000  0.75000  0.40000  Biso   1.000  Cu
  Cu1887   1.0000 0.15000  0.70000  0.45000  Biso   1.000  Cu
  Cu1888   1.0000 0.10000  0.75000  0.45000  Biso   1.000  Cu
  Cu1889   1.0000 0.20000  0.70000  0.40000  Biso   1.000  Cu
  Cu1890   1.0000 0.25000  0.75000  0.40000  Biso   1.000  Cu
  Cu1891   1.0000 0.25000  0.70000  0.45000  Biso   1.000  Cu
  Cu1892   1.0000 0.20000  0.75000  0.45000  Biso   1.000  Cu
  Cu1893   1.0000 0.30000  0.70000  0.40000  Biso   1.000  Cu
  Cu1894   1.0000 0.35000  0.75000  0.40000  Biso   1.000  Cu
  Cu1895   1.0000 0.35000  0.70000  0.45000  Biso   1.000  Cu
  Cu1896   1.0000 0.30000  0.75000  0.45000  Biso   1.000  Cu
  Cu1897   1.0000 0.40000  0.70000  0.40000  Biso   1.000  Cu
  Cu1898   1.0000 0.45000  0.75000  0.40000  Biso   1.000  Cu
  Cu1899   1.0000 0.45000  0.70000  0.45000  Biso   1.000  Cu
  Cu1900   1.0000 0.40000  0.75000  0.45000  Biso   1.000  Cu
  Cu1901   1.0000 0.50000  0.70000  0.40000  Biso   1.000  Cu
  Cu1902   1.0000 0.55000  0.75000  0.40000  Biso   1.000  Cu
  Cu1903   1.0000 0.55000  0.70000  0.45000  Biso   1.000  Cu
  Cu1904   1.0000 0.50000  0.75000  0.45000  Biso   1.000  Cu
  Cu1905   1.0000 0.60000  0.70000  0.40000  Biso   1.000  Cu
  Cu1906   1.0000 0.65000  0.75000  0.40000  Biso   1.000  Cu
  Cu1907   1.0000 0.65000  0.70000  0.45000  Biso   1.000  Cu
  Cu1908   1.0000 0.60000  0.75000  0.45000  Biso   1.000  Cu
  Cu1909   1.0000 0.70000  0.70000  0.40000  Biso   1.000  Cu
  Cu1910   1.0000 0.75000  0.75000  0.40000  Biso   1.000  Cu
  Cu1911   1.0000 0.75000  0.70000  0.45000  Biso   1.000  Cu
  Cu1912   1.0000 0.70000  0.75000  0.45000  Biso   1.000  Cu
  Cu1913   1.0000 0.80000  0.70000  0.40000  Biso   1.000  Cu
  Cu1914   1.0000 0.85000  0.75000  0.40000  Biso   1.000  Cu
  Cu1915   1.0000 0.85000  0.70000  0.45000  Biso   1.000  Cu
  Cu1916   1.0000 0.80000  0.75000  0.45000  Biso   1.000  Cu
  Cu1917   1.0000 0.90000  0.70000  0.40000  Biso   1.000  Cu
  Cu1918   1.0000 0.95000  0.75000  0.40000  Biso   1.000  Cu
  Cu1919   1.0000 0.95000  0.70000  0.45000  Biso   1.000  Cu
  Cu1920   1.0000 0.90000  0.75000  0.45000  Biso   1.000  Cu
  Cu1921   1.0000 0.00000  0.80000  0.40000  Biso   1.000  Cu
  Cu1922   1.0000 0.05000  0.85000  0.40000  Biso   1.000  Cu
  Cu1923   1.0000 0.05000  0.80000  0.45000  Biso   1.000  Cu
  Cu1924   1.0000 0.00000  0.85000  0.45000  Biso   1.000  Cu
  Cu1925   1.0000 0.10000  0.80000  0.40000  Biso   1.000  Cu
  Cu1926   1.0000 0.15000  0.85000  0.40000  Biso   1.000  Cu
  Cu1927   1.0000 0.15000  0.80000  0.45000  Biso   1.000  Cu
  Cu1928   1.0000 0.10000  0.85000  0.45000  Biso   1.000  Cu
  Cu1929   1.0000 0.20000  0.80000  0.40000  Biso   1.000  Cu
  Cu1930   1.0000 0.25000  0.85000  0.40000  Biso   1.000  Cu
  Cu1931   1.0000 0.25000  0.80000  0.45000  Biso   1.000  Cu
  Cu1932   1.0000 0.20000  0.85000  0.45000  Biso   1.000  Cu
  Cu1933   1.0000 0.30000  0.80000  0.40000  Biso   1.000  Cu
  Cu1934   1.0000 0.35000  0.85000  0.40000  Biso   1.000  Cu
  Cu1935   1.0000 0.35000  0.80000  0.45000  Biso   1.000  Cu
  Cu1936   1.0000 0.30000  0.85000  0.45000  Biso   1.000  Cu
  Cu1937   1.0000 0.40000  0.80000  0.40000  Biso   1.000  Cu
  Cu1938   1.0000 0.45000  0.85000  0.40000  Biso   1.000  Cu
  Cu1939   1.0000 0.45000  0.80000  0.45000  Biso   1.000  Cu
  Cu1940   1.0000 0.40000  0.85000  0.45000  Biso   1.000  Cu
  Cu1941   1.0000 0.50000  0.80000  0.40000  Biso   1.000  Cu
  Cu1942   1.0000 0.55000  0.85000  0.40000  Biso   1.000  Cu
  Cu1943   1.0000 0.55000  0.80000  0.45000  Biso   1.000  Cu
  Cu1944   1.0000 0.50000  0.85000  0.45000  Biso   1.000  Cu
  Cu1945   1.0000 0.60000  0.80000  0.40000  Biso   1.000  Cu
  Cu1946   1.0000 0.65000  0.85000  0.40000  Biso   1.000  Cu
  Cu1947   1.0000 0.65000  0.80000  0.45000  Biso   1.000  Cu
  Cu1948   1.0000 0.60000  0.85000  0.45000  Biso   1.000  Cu
  Cu1949   1.0000 0.70000  0.80000  0.40000  Biso   1.000  Cu
  Cu1950   1.0000 0.75000  0.85000  0.40000  Biso   1.000  Cu
  Cu1951   1.0000 0.75000  0.80000  0.45000  Biso   1.000  Cu
  Cu1952   1.0000 0.70000  0.85000  0.45000  Biso   1.000  Cu
  Cu1953   1.0000 0.80000  0.80000  0.40000  Biso   1.000  Cu
  Cu1954   1.0000 0.85000  0.85000  0.40000  Biso   1.000  Cu
  Cu1955   1.0000 0.85000  0.80000  0.45000  Biso   1.000  Cu
  Cu1956   1.0000 0.80000  0.85000  0.45000  Biso   1.000  Cu
  Cu1957   1.0000 0.90000  0.80000  0.40000  Biso   1.000  Cu
  Cu1958   1.0000 0.95000  0.85000  0.40000  Biso   1.000  Cu
  Cu1959   1.0000 0.95000  0.80000  0.45000  Biso   1.000  Cu
  Cu1960   1.0000 0.90000  0.85000  0.45000  Biso   1.000  Cu
  Cu1961   1.0000 0.00000  0.90000  0.40000  Biso   1.000  Cu
  Cu1962   1.0000 0.05000  0.95000  0.40000  Biso   1.000  Cu
  Cu1963   1.0000 0.05000  0.90000  0.45000  Biso   1.000  Cu
  Cu1964   1.0000 0.00000  0.95000  0.45000  Biso   1.000  Cu
  Cu1965   1.0000 0.10000  0.90000  0.40000  Biso   1.000  Cu
  Cu1966   1.0000 0.15000  0.95000  0.40000  Biso   1.000  Cu
  Cu1967   1.0000 0.15000  0.90000  0.45000  Biso   1.000  Cu
  Cu1968   1.0000 0.10000  0.95000  0.45000  Biso   1.000  Cu
  Cu1969   1.0000 0.20000  0.90000  0.40000  Biso   1.000  Cu
  Cu1970   1.0000 0.25000  0.95000  0.40000  Biso   1.000  Cu
  Cu1971   1.0000 0.25000  0.90000  0.45000  Biso   1.000  Cu
  Cu1972   1.0000 0.20000  0.95000  0.45000  Biso   1.000  Cu
  Cu1973   1.0000 0.30000  0.90000  0.40000  Biso   1.000  Cu
  Cu1974   1.0000 0.35000  0.95000  0.40000  Biso   1.000  Cu
  Cu1975   1.0000 0.35000  0.90000  0.45000  Biso   1.000  Cu
  Cu1976   1.0000 0.30000  0.95000  0.45000  Biso   1.000  Cu
  Cu1977   1.0000 0.40000  0.90000  0.40000  Biso   1.000  Cu
  Cu1978   1.0000 0.45000  0.95000  0.40000  Biso   1.000  Cu
  Cu1979   1.0000 0.45000  0.90000  0.45000  Biso   1.000  Cu
  Cu1980   1.0000 0.40000  0.95000  0.45000  Biso   1.000  Cu
  Cu1981   1.0000 0.50000  0.90000  0.40000  Biso   1.000  Cu
  Cu1982   1.0000 0.55000  0.95000  0.40000  Biso   1.000  Cu
  Cu1983   1.0000 0.55000  0.90000  0.45000  Biso   1.000  Cu
  Cu1984   1.0000 0.50000  0.95000  0.45000  Biso   1.000  Cu
  Cu1985   1.0000 0.60000  0.90000  0.40000  Biso   1.000  Cu
  Cu1986   1.0000 0.65000  0.95000  0.40000  Biso   1.000  Cu
  Cu1987   1.0000 0.65000  0.90000  0.45000  Biso   1.000  Cu
  Cu1988   1.0000 0.60000  0.95000  0.45000  Biso   1.000  Cu
  Cu1989   1.0000 0.70000  0.90000  0.40000  Biso   1.000  Cu
  Cu1990   1.0000 0.75000  0.95000  0.40000  Biso   1.000  Cu
  Cu1991   1.0000 0.75000  0.90000  0.45000  Biso   1.000  Cu
  Cu1992   1.0000 0.70000  0.95000  0.45000  Biso   1.000  Cu
  Cu1993   1.0000 0.80000  0.90000  0.40000  Biso   1.000  Cu
  Cu1994   1.0000 0.85000  0.95000  0.40000  Biso   1.000  Cu
  Cu1995   1.0000 0.85000  0.90000  0.45000  Biso   1.000  Cu
  Cu1996   1.0000 0.80000  0.95000  0.45000  Biso   1.000  Cu
  Cu1997   1.0000 0.90000  0.90000  0.40000  Biso   1.000  Cu
  Cu1998   1.0000 0.95000  0.95000  0.40000  Biso   1.000  Cu
  Cu1999   1.0000 0.95000  0.90000  0.45000  Biso   1.000  Cu
  Cu2000   1.0000 0.90000  0.95000  0.45000  Biso   1.000  Cu
  Cu2001   1.0000 0.00000  0.00000  0.50000  Biso   1.000  Cu
  Cu2002   1.0000 0.05000  0.05000  0.50000  Biso   1.000  Cu
  Cu2003   1.0000 0.05000  0.00000  0.55000  Biso   1.000  Cu
  Cu2004   1.0000 0.00000  0.05000  0.55000  Biso   1.000  Cu
  Cu2005   1.0000 0.10000  0.00000  0.50000  Biso   1.000  Cu
  Cu2006   1.0000 0.15000  0.05000  0.50000  Biso   1.000  Cu
  Cu2007   1.0000 0.15000  0.00000  0.55000  Biso   1.000  Cu
  Cu2008   1.0000 0.10000  0.05000  0.55000  Biso   1.000  Cu
  Cu2009   1.0000 0.20000  0.00000  0.50000  Biso   1.000  Cu
  Cu2010   1.0000 0.25000  0.05000  0.50000  Biso   1.000  Cu
  Cu2011   1.0000 0.25000  0.00000  0.55000  Biso   1.000  Cu
  Cu2012   1.0000 0.20000  0.05000  0.55000  Biso   1.000  Cu
  Cu2013   1.0000 0.30000  0.00000  0.50000  Biso   1.000  Cu
  Cu2014   1.0000 0.35000  0.05000  0.50000  Biso   1.000  Cu
  Cu2015   1.0000 0.35000  0.00000  0.55000  Biso   1.000  Cu
  Cu2016   1.0000 0.30000  0.05000  0.55000  Biso   1.000  Cu
  Cu2017   1.0000 0.40000  0.00000  0.50000  Biso   1.000  Cu
  Cu2018   1.0000 0.45000  0.05000  0.50000  Biso   1.000  Cu
  Cu2019   1.0000 0.45000  0.00000  0.55000  Biso   1.000  Cu
  Cu2020   1.0000 0.40000  0.05000  0.55000  Biso   1.000  Cu
  Cu2021   1.0000 0.50000  0.00000  0.50000  Biso   1.000  Cu
  Cu2022   1.0000 0.55000  0.05000  0.50000  Biso   1.000  Cu
  Cu2023   1.0000 0.55000  0.00000  0.55000  Biso   1.000  Cu
  Cu2024   1.0000 0.50000  0.05000  0.55000  Biso   1.000  Cu
  Cu2025   1.0000 0.60000  0.00000  0.50000  Biso   1.000  Cu
  Cu2026   1.0000 0.65000  0.05000  0.50000  Biso   1.000  Cu
  Cu2027   1.0000 0.65000  0.00000  0.55000  Biso   1.000  Cu
  Cu2028   1.0000 0.60000  0.05000  0.55000  Biso   1.000  Cu
  Cu2029   1.0000 0.70000  0.00000  0.50000  Biso   1.000  Cu
  Cu2030   1.0000 0.75000  0.05000  0.50000  Biso   1.000  Cu
  Cu2031   1.0000 0.75000  0.00000  0.55000  Biso   1.000  Cu
  Cu2032   1.0000 0.70000  0.05000  0.55000  Biso   1.000  Cu
  Cu2033   1.0000 0.80000  0.00000  0.50000  Biso   1.000  Cu
  Cu2034   1.0000 0.85000  0.05000  0.50000  Biso   1.000  Cu
  Cu2035   1.0000 0.85000  0.00000  0.55000  Biso   1.000  Cu
  Cu2036   1.0000 0.80000  0.05000  0.55000  Biso   1.000  Cu
  Cu2037   1.0000 0.90000  0.00000  0.50000  Biso   1.000  Cu
  Cu2038   1.0000 0.95000  0.05000  0.50000  Biso   1.000  Cu
  Cu2039   1.0000 0.95000  0.00000  0.55000  Biso   1.000  Cu
  Cu2040   1.0000 0.90000  0.05000  0.55000  Biso   1.000  Cu
  Cu2041   1.0000 0.00000  0.10000  0.50000  Biso   1.000  Cu
  Cu2042   1.0000 0.05000  0.15000  0.50000  Biso   1.000  Cu
  Cu2043   1.0000 0.05000  0.10000  0.55000  Biso   1.000  Cu
  Cu2044   1.0000 0.00000  0.15000  0.55000  Biso   1.000  Cu
  Cu2045   1.0000 0.10000  0.10000  0.50000  Biso   1.000  Cu
  Cu2046   1.0000 0.15000  0.15000  0.50000  Biso   1.000  Cu
  Cu2047   1.0000 0.15000  0.10000  0.55000  Biso   1.000  Cu
  Cu2048   1.0000 0.10000  0.15000  0.55000  Biso   1.000  Cu
  Cu2049   1.0000 0.20000  0.10000  0.50000  Biso   1.000  Cu
  Cu2050   1.0000 0.25000  0.15000  0.50000  Biso   1.000  Cu
  Cu2051   1.0000 0.25000  0.10000  0.55000  Biso   1.000  Cu
  Cu2052   1.0000 0.20000  0.15000  0.55000  Biso   1.000  Cu
  Cu2053   1.0000 0.30000  0.10000  0.50000  Biso   1.000  Cu
  Cu2054   1.0000 0.35000  0.15000  0.50000  Biso   1.000  Cu
  Cu2055   1.0000 0.35000  0.10000  0.55000  Biso   1.000  Cu
  Cu2056   1.0000 0.30000  0.15000  0.55000  Biso   1.000  Cu
  Cu2057   1.0000 0.40000  0.10000  0.50000  Biso   1.000  Cu
  Cu2058   1.0000 0.45000  0.15000  0.50000  Biso   1.000  Cu
  Cu2059   1.0000 0.45000  0.10000  0.55000  Biso   1.000  Cu
  Cu2060   1.0000 0.40000  0.15000  0.55000  Biso   1.000  Cu
  Cu2061   1.0000 0.50000  0.10000  0.50000  Biso   1.000  Cu
  Cu2062   1.0000 0.55000  0.15000  0.50000  Biso   1.000  Cu
  Cu2063   1.0000 0.55000  0.10000  0.55000  Biso   1.000  Cu
  Cu2064   1.0000 0.50000  0.15000  0.55000  Biso   1.000  Cu
  Cu2065   1.0000 0.60000  0.10000  0.50000  Biso   1.000  Cu
  Cu2066   1.0000 0.65000  0.15000  0.50000  Biso   1.000  Cu
  Cu2067   1.0000 0.65000  0.10000  0.55000  Biso   1.000  Cu
  Cu2068   1.0000 0.60000  0.15000  0.55000  Biso   1.000  Cu
  Cu2069   1.0000 0.70000  0.10000  0.50000  Biso   1.000  Cu
  Cu2070   1.0000 0.75000  0.15000  0.50000  Biso   1.000  Cu
  Cu2071   1.0000 0.75000  0.10000  0.55000  Biso   1.000  Cu
  Cu2072   1.0000 0.70000  0.15000  0.55000  Biso   1.000  Cu
  Cu2073   1.0000 0.80000  0.10000  0.50000  Biso   1.000  Cu
  Cu2074   1.0000 0.85000  0.15000  0.50000  Biso   1.000  Cu
  Cu2075   1.0000 0.85000  0.10000  0.55000  Biso   1.000  Cu
  Cu2076   1.0000 0.80000  0.15000  0.55000  Biso   1.000  Cu
  Cu2077   1.0000 0.90000  0.10000  0.50000  Biso   1.000  Cu
  Cu2078   1.0000 0.95000  0.15000  0.50000  Biso   1.000  Cu
  Cu2079   1.0000 0.95000  0.10000  0.55000  Biso   1.000  Cu
  Cu2080   1.0000 0.90000  0.15000  0.55000  Biso   1.000  Cu
  Cu2081   1.0000 0.00000  0.20000  0.50000  Biso   1.000  Cu
  Cu2082   1.0000 0.05000  0.25000  0.50000  Biso   1.000  Cu
  Cu2083   1.0000 0.05000  0.20000  0.55000  Biso   1.000  Cu
  Cu2084   1.0000 0.00000  0.25000  0.55000  Biso   1.000  Cu
  Cu2085   1.0000 0.10000  0.20000  0.50000  Biso   1.000  Cu
  Cu2086   1.0000 0.15000  0.25000  0.50000  Biso   1.000  Cu
  Cu2087   1.0000 0.15000  0.20000  0.55000  Biso   1.000  Cu
  Cu2088   1.0000 0.10000  0.25000  0.55000  Biso   1.000  Cu
  Cu2089   1.0000 0.20000  0.20000  0.50000  Biso   1.000  Cu
  Cu2090   1.0000 0.25000  0.25000  0.50000  Biso   1.000  Cu
  Cu2091   1.0000 0.25000  0.20000  0.55000  Biso   1.000  Cu
  Cu2092   1.0000 0.20000  0.25000  0.55000  Biso   1.000  Cu
  Cu2093   1.0000 0.30000  0.20000  0.50000  Biso   1.000  Cu
  Cu2094   1.0000 0.35000  0.25000  0.50000  Biso   1.000  Cu
  Cu2095   1.0000 0.35000  0.20000  0.55000  Biso   1.000  Cu
  Cu2096   1.0000 0.30000  0.25000  0.55000  Biso   1.000  Cu
  Cu2097   1.0000 0.40000  0.20000  0.50000  Biso   1.000  Cu
  Cu2098   1.0000 0.45000  0.25000  0.50000  Biso   1.000  Cu
  Cu2099   1.0000 0.45000  0.20000  0.55000  Biso   1.000  Cu
  Cu2100   1.0000 0.40000  0.25000  0.55000  Biso   1.000  Cu
  Cu2101   1.0000 0.50000  0.20000  0.50000  Biso   1.000  Cu
  Cu2102   1.0000 0.55000  0.25000  0.50000  Biso   1.000  Cu
  Cu2103   1.0000 0.55000  0.20000  0.55000  Biso   1.000  Cu
  Cu2104   1.0000 0.50000  0.25000  0.55000  Biso   1.000  Cu
  Cu2105   1.0000 0.60000  0.20000  0.50000  Biso   1.000  Cu
  Cu2106   1.0000 0.65000  0.25000  0.50000  Biso   1.000  Cu
  Cu2107   1.0000 0.65000  0.20000  0.55000  Biso   1.000  Cu
  Cu2108   1.0000 0.60000  0.25000  0.55000  Biso   1.000  Cu
  Cu2109   1.0000 0.70000  0.20000  0.50000  Biso   1.000  Cu
  Cu2110   1.0000 0.75000  0.25000  0.50000  Biso   1.000  Cu
  Cu2111   1.0000 0.75000  0.20000  0.55000  Biso   1.000  Cu
  Cu2112   1.0000 0.70000  0.25000  0.55000  Biso   1.000  Cu
  Cu2113   1.0000 0.80000  0.20000  0.50000  Biso   1.000  Cu
  Cu2114   1.0000 0.85000  0.25000  0.50000  Biso   1.000  Cu
  Cu2115   1.0000 0.85000  0.20000  0.55000  Biso   1.000  Cu
  Cu2116   1.0000 0.80000  0.25000  0.55000  Biso   1.000  Cu
  Cu2117   1.0000 0.90000  0.20000  0.50000  Biso   1.000  Cu
  Cu2118   1.0000 0.95000  0.25000  0.50000  Biso   1.000  Cu
  Cu2119   1.0000 0.95000  0.20000  0.55000  Biso   1.000  Cu
  Cu2120   1.0000 0.90000  0.25000  0.55000  Biso   1.000  Cu
  Cu2121   1.0000 0.00000  0.30000  0.50000  Biso   1.000  Cu
  Cu2122   1.0000 0.05000  0.35000  0.50000  Biso   1.000  Cu
  Cu2123   1.0000 0.05000  0.30000  0.55000  Biso   1.000  Cu
  Cu2124   1.0000 0.00000  0.35000  0.55000  Biso   1.000  Cu
  Cu2125   1.0000 0.10000  0.30000  0.50000  Biso   1.000  Cu
  Cu2126   1.0000 0.15000  0.35000  0.50000  Biso   1.000  Cu
  Cu2127   1.0000 0.15000  0.30000  0.55000  Biso   1.000  Cu
  Cu2128   1.0000 0.10000  0.35000  0.55000  Biso   1.000  Cu
  Cu2129   1.0000 0.20000  0.30000  0.50000  Biso   1.000  Cu
  Cu2130   1.0000 0.25000  0.35000  0.50000  Biso   1.000  Cu
  Cu2131   1.0000 0.25000  0.30000  0.55000  Biso   1.000  Cu
  Cu2132   1.0000 0.20000  0.35000  0.55000  Biso   1.000  Cu
  Cu2133   1.0000 0.30000  0.30000  0.50000  Biso   1.000  Cu
  Cu2134   1.0000 0.35000  0.35000  0.50000  Biso   1.000  Cu
  Cu2135   1.0000 0.35000  0.30000  0.55000  Biso   1.000  Cu
  Cu2136   1.0000 0.30000  0.35000  0.55000  Biso   1.000  Cu
  Cu2137   1.0000 0.40000  0.30000  0.50000  Biso   1.000  Cu
  Cu2138   1.0000 0.45000  0.35000  0.50000  Biso   1.000  Cu
  Cu2139   1.0000 0.45000  0.30000  0.55000  Biso   1.000  Cu
  Cu2140   1.0000 0.40000  0.35000  0.55000  Biso   1.000  Cu
  Cu2141   1.0000 0.50000  0.30000  0.50000  Biso   1.000  Cu
  Cu2142   1.0000 0.55000  0.35000  0.50000  Biso   1.000  Cu
  Cu2143   1.0000 0.55000  0.30000  0.55000  Biso   1.000  Cu
  Cu2144   1.0000 0.50000  0.35000  0.55000  Biso   1.000  Cu
  Cu2145   1.0000 0.60000  0.30000  0.50000  Biso   1.000  Cu
  Cu2146   1.0000 0.65000  0.35000  0.50000  Biso   1.000  Cu
  Cu2147   1.0000 0.65000  0.30000  0.55000  Biso   1.000  Cu
  Cu2148   1.0000 0.60000  0.35000  0.55000  Biso   1.000  Cu
  Cu2149   1.0000 0.70000  0.30000  0.50000  Biso   1.000  Cu
  Cu2150   1.0000 0.75000  0.35000  0.50000  Biso   1.000  Cu
  Cu2151   1.0000 0.75000  0.30000  0.55000  Biso   1.000  Cu
  Cu2152   1.0000 0.70000  0.35000  0.55000  Biso   1.000  Cu
  Cu2153   1.0000 0.80000  0.30000  0.50000  Biso   1.000  Cu
  Cu2154   1.0000 0.85000  0.35000  0.50000  Biso   1.000  Cu
  Cu2155   1.0000 0.85000  0.30000  0.55000  Biso   1.000  Cu
  Cu2156   1.0000 0.80000  0.35000  0.55000  Biso   1.000  Cu
  Cu2157   1.0000 0.90000  0.30000  0.50000  Biso   1.000  Cu
  Cu2158   1.0000 0.95000  0.35000  0.50000  Biso   1.000  Cu
  Cu2159   1.0000 0.95000  0.30000  0.55000  Biso   1.000  Cu
  Cu2160   1.0000 0.90000  0.35000  0.55000  Biso   1.000  Cu
  Cu2161   1.0000 0.00000  0.40000  0.50000  Biso   1.000  Cu
  Cu2162   1.0000 0.05000  0.45000  0.50000  Biso   1.000  Cu
  Cu2163   1.0000 0.05000  0.40000  0.55000  Biso   1.000  Cu
  Cu2164   1.0000 0.00000  0.45000  0.55000  Biso   1.000  Cu
  Cu2165   1.0000 0.10000  0.40000  0.50000  Biso   1.000  Cu
  Cu2166   1.0000 0.15000  0.45000  0.50000  Biso   1.000  Cu
  Cu2167   1.0000 0.15000  0.40000  0.55000  Biso   1.000  Cu
  Cu2168   1.0000 0.10000  0.45000  0.55000  Biso   1.000  Cu
  Cu2169   1.0000 0.20000  0.40000  0.50000  Biso   1.000  Cu
  Cu2170   1.0000 0.25000  0.45000  0.50000  Biso   1.000  Cu
  Cu2171   1.0000 0.25000  0.40000  0.55000  Biso   1.000  Cu
  Cu2172   1.0000 0.20000  0.45000  0.55000  Biso   1.000  Cu
  Cu2173   1.0000 0.30000  0.40000  0.50000  Biso   1.000  Cu
  Cu2174   1.0000 0.35000  0.45000  0.50000  Biso   1.000  Cu
  Cu2175   1.0000 0.35000  0.40000  0.55000  Biso   1.000  Cu
  Cu2176   1.0000 0.30000  0.45000  0.55000  Biso   1.000  Cu
  Cu2177   1.0000 0.40000  0.40000  0.50000  Biso   1.000  Cu
  Cu2178   1.0000 0.45000  0.45000  0.50000  Biso   1.000  Cu
  Cu2179   1.0000 0.45000  0.40000  0.55000  Biso   1.000  Cu
  Cu2180   1.0000 0.40000  0.45000  0.55000  Biso   1.000  Cu
  Cu2181   1.0000 0.50000  0.40000  0.50000  Biso   1.000  Cu
  Cu2182   1.0000 0.55000  0.45000  0.50000  Biso   1.000  Cu
  Cu2183   1.0000 0.55000  0.40000  0.55000  Biso   1.000  Cu
  Cu2184   1.0000 0.50000  0.45000  0.55000  Biso   1.000  Cu
  Cu2185   1.0000 0.60000  0.40000  0.50000  Biso   1.000  Cu
  Cu2186   1.0000 0.65000  0.45000  0.50000  Biso   1.000  Cu
  Cu2187   1.0000 0.65000  0.40000  0.55000  Biso   1.000  Cu
  Cu2188   1.0000 0.60000  0.45000  0.55000  Biso   1.000  Cu
  Cu2189   1.0000 0.70000  0.40000  0.50000  Biso   1.000  Cu
  Cu2190   1.0000 0.75000  0.45000  0.50000  Biso   1.000  Cu
  Cu2191   1.0000 0.75000  0.40000  0.55000  Biso   1.000  Cu
  Cu2192   1.0000 0.70000  0.45000  0.55000  Biso   1.000  Cu
  Cu2193   1.0000 0.80000  0.40000  0.50000  Biso   1.000  Cu
  Cu2194   1.0000 0.85000  0.45000  0.50000  Biso   1.000  Cu
  Cu2195   1.0000 0.85000  0.40000  0.55000  Biso   1.000  Cu
  Cu2196   1.0000 0.80000  0.45000  0.55000  Biso   1.000  Cu
  Cu2197   1.0000 0.90000  0.40000  0.50000  Biso   1.000  Cu
  Cu2198   1.0000 0.95000  0.45000  0.50000  Biso   1.000  Cu
  Cu2199   1.0000 0.95000  0.40000  0.55000  Biso   1.000  Cu
  Cu2200   1.0000 0.90000  0.45000  0.55000  Biso   1.000  Cu
  Cu2201   1.0000 0.00000  0.50000  0.50000  Biso   1.000  Cu
  Cu2202   1.0000 0.05000  0.55000  0.50000  Biso   1.000  Cu
  Cu2203   1.0000 0.05000  0.50000  0.55000  Biso   1.000  Cu
  Cu2204   1.0000 0.00000  0.55000  0.55000  Biso   1.000  Cu
  Cu2205   1.0000 0.10000  0.50000  0.50000  Biso   1.000  Cu
  Cu2206   1.0000 0.15000  0.55000  0.50000  Biso   1.000  Cu
  Cu2207   1.0000 0.15000  0.50000  0.55000  Biso   1.000  Cu
  Cu2208   1.0000 0.10000  0.55000  0.55000  Biso   1.000  Cu
  Cu2209   1.0000 0.20000  0.50000  0.50000  Biso   1.000  Cu
  Cu2210   1.0000 0.25000  0.55000  0.50000  Biso   1.000  Cu
  Cu2211   1.0000 0.25000  0.50000  0.55000  Biso   1.000  Cu
  Cu2212   1.0000 0.20000  0.55000  0.55000  Biso   1.000  Cu
  Cu2213   1.0000 0.30000  0.50000  0.50000  Biso   1.000  Cu
  Cu2214   1.0000 0.35000  0.55000  0.50000  Biso   1.000  Cu
  Cu2215   1.0000 0.35000  0.50000  0.55000  Biso   1.000  Cu
  Cu2216   1.0000 0.30000  0.55000  0.55000  Biso   1.000  Cu
  Cu2217   1.0000 0.40000  0.50000  0.50000  Biso   1.000  Cu
  Cu2218   1.0000 0.45000  0.55000  0.50000  Biso   1.000  Cu
  Cu2219   1.0000 0.45000  0.50000  0.55000  Biso   1.000  Cu
  Cu2220   1.0000 0.40000  0.55000  0.55000  Biso   1.000  Cu
  Cu2221   1.0000 0.50000  0.50000  0.50000  Biso   1.000  Cu
  Cu2222   1.0000 0.55000  0.55000  0.50000  Biso   1.000  Cu
  Cu2223   1.0000 0.55000  0.50000  0.55000  Biso   1.000  Cu
  Cu2224   1.0000 0.50000  0.55000  0.55000  Biso   1.000  Cu
  Cu2225   1.0000 0.60000  0.50000  0.50000  Biso   1.000  Cu
  Cu2226   1.0000 0.65000  0.55000  0.50000  Biso   1.000  Cu
  Cu2227   1.0000 0.65000  0.50000  0.55000  Biso   1.000  Cu
  Cu2228   1.0000 0.60000  0.55000  0.55000  Biso   1.000  Cu
  Cu2229   1.0000 0.70000  0.50000  0.50000  Biso   1.000  Cu
  Cu2230   1.0000 0.75000  0.55000  0.50000  Biso   1.000  Cu
  Cu2231   1.0000 0.75000  0.50000  0.55000  Biso   1.000  Cu
  Cu2232   1.0000 0.70000  0.55000  0.55000  Biso   1.000  Cu
  Cu2233   1.0000 0.80000  0.50000  0.50000  Biso   1.000  Cu
  Cu2234   1.0000 0.85000  0.55000  0.50000  Biso   1.000  Cu
  Cu2235   1.0000 0.85000  0.50000  0.55000  Biso   1.000  Cu
  Cu2236   1.0000 0.80000  0.55000  0.55000  Biso   1.000  Cu
  Cu2237   1.0000 0.90000  0.50000  0.50000  Biso   1.000  Cu
  Cu2238   1.0000 0.95000  0.55000  0.50000  Biso   1.000  Cu
  Cu2239   1.0000 0.95000  0.50000  0.55000  Biso   1.000  Cu
  Cu2240   1.0000 0.90000  0.55000  0.55000  Biso   1.000  Cu
  Cu2241   1.0000 0.00000  0.60000  0.50000  Biso   1.000  Cu
  Cu2242   1.0000 0.05000  0.65000  0.50000  Biso   1.000  Cu
  Cu2243   1.0000 0.05000  0.60000  0.55000  Biso   1.000  Cu
  Cu2244   1.0000 0.00000  0.65000  0.55000  Biso   1.000  Cu
  Cu2245   1.0000 0.10000  0.60000  0.50000  Biso   1.000  Cu
  Cu2246   1.0000 0.15000  0.65000  0.50000  Biso   1.000  Cu
  Cu2247   1.0000 0.15000  0.60000  0.55000  Biso   1.000  Cu
  Cu2248   1.0000 0.10000  0.65000  0.55000  Biso   1.000  Cu
  Cu2249   1.0000 0.20000  0.60000  0.50000  Biso   1.000  Cu
  Cu2250   1.0000 0.25000  0.65000  0.50000  Biso   1.000  Cu
  Cu2251   1.0000 0.25000  0.60000  0.55000  Biso   1.000  Cu
  Cu2252   1.0000 0.20000  0.65000  0.55000  Biso   1.000  Cu
  Cu2253   1.0000 0.30000  0.60000  0.50000  Biso   1.000  Cu
  Cu2254   1.0000 0.35000  0.65000  0.50000  Biso   1.000  Cu
  Cu2255   1.0000 0.35000  0.60000  0.55000  Biso   1.000  Cu
  Cu2256   1.0000 0.30000  0.65000  0.55000  Biso   1.000  Cu
  Cu2257   1.0000 0.40000  0.60000  0.50000  Biso   1.000  Cu
  Cu2258   1.0000 0.45000  0.65000  0.50000  Biso   1.000  Cu
  Cu2259   1.0000 0.45000  0.60000  0.55000  Biso   1.000  Cu
  Cu2260   1.0000 0.40000  0.65000  0.55000  Biso   1.000  Cu
  Cu2261   1.0000 0.50000  0.60000  0.50000  Biso   1.000  Cu
  Cu2262   1.0000 0.55000  0.65000  0.50000  Biso   1.000  Cu
  Cu2263   1.0000 0.55000  0.60000  0.55000  Biso   1.000  Cu
  Cu2264   1.0000 0.50000  0.65000  0.55000  Biso   1.000  Cu
  Cu2265   1.0000 0.60000  0.60000  0.50000  Biso   1.000  Cu
  Cu2266   1.0000 0.65000  0.65000  0.50000  Biso   1.000  Cu
  Cu2267   1.0000 0.65000  0.60000  0.55000  Biso   1.000  Cu
  Cu2268   1.0000 0.60000  0.65000  0.55000  Biso   1.000  Cu
  Cu2269   1.0000 0.70000  0.60000  0.50000  Biso   1.000  Cu
  Cu2270   1.0000 0.75000  0.65000  0.50000  Biso   1.000  Cu
  Cu2271   1.0000 0.75000  0.60000  0.55000  Biso   1.000  Cu
  Cu2272   1.0000 0.70000  0.65000  0.55000  Biso   1.000  Cu
  Cu2273   1.0000 0.80000  0.60000  0.50000  Biso   1.000  Cu
  Cu2274   1.0000 0.85000  0.65000  0.50000  Biso   1.000  Cu
  Cu2275   1.0000 0.85000  0.60000  0.55000  Biso   1.000  Cu
  Cu2276   1.0000 0.80000  0.65000  0.55000  Biso   1.000  Cu
  Cu2277   1.0000 0.90000  0.60000  0.50000  Biso   1.000  Cu
  Cu2278   1.0000 0.95000  0.65000  0.50000  Biso   1.000  Cu
  Cu2279   1.0000 0.95000  0.60000  0.55000  Biso   1.000  Cu
  Cu2280   1.0000 0.90000  0.65000  0.55000  Biso   1.000  Cu
  Cu2281   1.0000 0.00000  0.70000  0.50000  Biso   1.000  Cu
  Cu2282   1.0000 0.05000  0.75000  0.50000  Biso   1.000  Cu
  Cu2283   1.0000 0.05000  0.70000  0.55000  Biso   1.000  Cu
  Cu2284   1.0000 0.00000  0.75000  0.55000  Biso   1.000  Cu
  Cu2285   1.0000 0.10000  0.70000  0.50000  Biso   1.000  Cu
  Cu2286   1.0000 0.15000  0.75000  0.50000  Biso   1.000  Cu
  Cu2287   1.0000 0.15000  0.70000  0.55000  Biso   1.000  Cu
  Cu2288   1.0000 0.10000  0.75000  0.55000  Biso   1.000  Cu
  Cu2289   1.0000 0.20000  0.70000  0.50000  Biso   1.000  Cu
  Cu2290   1.0000 0.25000  0.75000  0.50000  Biso   1.000  Cu
  Cu2291   1.0000 0.25000  0.70000  0.55000  Biso   1.000  Cu
  Cu2292   1.0000 0.20000  0.75000  0.55000  Biso   1.000  Cu
  Cu2293   1.0000 0.30000  0.70000  0.50000  Biso   1.000  Cu
  Cu2294   1.0000 0.35000  0.75000  0.50000  Biso   1.000  Cu
  Cu2295   1.0000 0.35000  0.70000  0.55000  Biso   1.000  Cu
  Cu2296   1.0000 0.30000  0.75000  0.55000  Biso   1.000  Cu
  Cu2297   1.0000 0.40000  0.70000  0.50000  Biso   1.000  Cu
  Cu2298   1.0000 0.45000  0.75000  0.50000  Biso   1.000  Cu
  Cu2299   1.0000 0.45000  0.70000  0.55000  Biso   1.000  Cu
  Cu2300   1.0000 0.40000  0.75000  0.55000  Biso   1.000  Cu
  Cu2301   1.0000 0.50000  0.70000  0.50000  Biso   1.000  Cu
  Cu2302   1.0000 0.55000  0.75000  0.50000  Biso   1.000  Cu
  Cu2303   1.0000 0.55000  0.70000  0.55000  Biso   1.000  Cu
  Cu2304   1.0000 0.50000  0.75000  0.55000  Biso   1.000  Cu
  Cu2305   1.0000 0.60000  0.70000  0.50000  Biso   1.000  Cu
  Cu2306   1.0000 0.65000  0.75000  0.50000  Biso   1.000  Cu
  Cu2307   1.0000 0.65000  0.70000  0.55000  Biso   1.000  Cu
  Cu2308   1.0000 0.60000  0.75000  0.55000  Biso   1.000  Cu
  Cu2309   1.0000 0.70000  0.70000  0.50000  Biso   1.000  Cu
  Cu2310   1.0000 0.75000  0.75000  0.50000  Biso   1.000  Cu
  Cu2311   1.0000 0.75000  0.70000  0.55000  Biso   1.000  Cu
  Cu2312   1.0000 0.70000  0.75000  0.55000  Biso   1.000  Cu
  Cu2313   1.0000 0.80000  0.70000  0.50000  Biso   1.000  Cu
  Cu2314   1.0000 0.85000  0.75000  0.50000  Biso   1.000  Cu
  Cu2315   1.0000 0.85000  0.70000  0.55000  Biso   1.000  Cu
  Cu2316   1.0000 0.80000  0.75000  0.55000  Biso   1.000  Cu
  Cu2317   1.0000 0.90000  0.70000  0.50000  Biso   1.000  Cu
  Cu2318   1.0000 0.95000  0.75000  0.50000  Biso   1.000  Cu
  Cu2319   1.0000 0.95000  0.70000  0.55000  Biso   1.000  Cu
  Cu2320   1.0000 0.90000  0.75000  0.55000  Biso   1.000  Cu
  Cu2321   1.0000 0.00000  0.80000  0.50000  Biso   1.000  Cu
  Cu2322   1.0000 0.05000  0.85000  0.50000  Biso   1.000  Cu
  Cu2323   1.0000 0.05000  0.80000  0.55000  Biso   1.000  Cu
  Cu2324   1.0000 0.00000  0.85000  0.55000  Biso   1.000  Cu
  Cu2325   1.0000 0.10000  0.80000  0.50000  Biso   1.000  Cu
  Cu2326   1.0000 0.15000  0.85000  0.50000  Biso   1.000  Cu
  Cu2327   1.0000 0.15000  0.80000  0.55000  Biso   1.000  Cu
  Cu2328   1.0000 0.10000  0.85000  0.55000  Biso   1.000  Cu
  Cu2329   1.0000 0.20000  0.80000  0.50000  Biso   1.000  Cu
  Cu2330   1.0000 0.25000  0.85000  0.50000  Biso   1.000  Cu
  Cu2331   1.0000 0.25000  0.80000  0.55000  Biso   1.000  Cu
  Cu2332   1.0000 0.20000  0.85000  0.55000  Biso   1.000  Cu
  Cu2333   1.0000 0.30000  0.80000  0.50000  Biso   1.000  Cu
  Cu2334   1.0000 0.35000  0.85000  0.50000  Biso   1.000  Cu
  Cu2335   1.0000 0.35000  0.80000  0.55000  Biso   1.000  Cu
  Cu2336   1.0000 0.30000  0.85000  0.55000  Biso   1.000  Cu
  Cu2337   1.0000 0.40000  0.80000  0.50000  Biso   1.000  Cu
  Cu2338   1.0000 0.45000  0.85000  0.50000  Biso   1.000  Cu
  Cu2339   1.0000 0.45000  0.80000  0.55000  Biso   1.000  Cu
  Cu2340   1.0000 0.40000  0.85000  0.55000  Biso   1.000  Cu
  Cu2341   1.0000 0.50000  0.80000  0.50000  Biso   1.000  Cu
  Cu2342   1.0000 0.55000  0.85000  0.50000  Biso   1.000  Cu
  Cu2343   1.0000 0.55000  0.80000  0.55000  Biso   1.000  Cu
  Cu2344   1.0000 0.50000  0.85000  0.55000  Biso   1.000  Cu
  Cu2345   1.0000 0.60000  0.80000  0.50000  Biso   1.000  Cu
  Cu2346   1.0000 0.65000  0.85000  0.50000  Biso   1.000  Cu
  Cu2347   1.0000 0.65000  0.80000  0.55000  Biso   1.000  Cu
  Cu2348   1.0000 0.60000  0.85000  0.55000  Biso   1.000  Cu
  Cu2349   1.0000 0.70000  0.80000  0.50000  Biso   1.000  Cu
  Cu2350   1.0000 0.75000  0.85000  0.50000  Biso   1.000  Cu
  Cu2351   1.0000 0.75000  0.80000  0.55000  Biso   1.000  Cu
  Cu2352   1.0000 0.70000  0.85000  0.55000  Biso   1.000  Cu
  Cu2353   1.0000 0.80000  0.80000  0.50000  Biso   1.000  Cu
  Cu2354   1.0000 0.85000  0.85000  0.50000  Biso   1.000  Cu
  Cu2355   1.0000 0.85000  0.80000  0.55000  Biso   1.000  Cu
  Cu2356   1.0000 0.80000  0.85000  0.55000  Biso   1.000  Cu
  Cu2357   1.0000 0.90000  0.80000  0.50000  Biso   1.000  Cu
  Cu2358   1.0000 0.95000  0.85000  0.50000  Biso   1.000  Cu
  Cu2359   1.0000 0.95000  0.80000  0.55000  Biso   1.000  Cu
  Cu2360   1.0000 0.90000  0.85000  0.55000  Biso   1.000  Cu
  Cu2361   1.0000 0.00000  0.90000  0.50000  Biso   1.000  Cu
  Cu2362   1.0000 0.05000  0.95000  0.50000  Biso   1.000  Cu
  Cu2363   1.0000 0.05000  0.90000  0.55000  Biso   1.000  Cu
  Cu2364   1.0000 0.00000  0.95000  0.55000  Biso   1.000  Cu
  Cu2365   1.0000 0.10000  0.90000  0.50000  Biso   1.000  Cu
  Cu2366   1.0000 0.15000  0.95000  0.50000  Biso   1.000  Cu
  Cu2367   1.0000 0.15000  0.90000  0.55000  Biso   1.000  Cu
  Cu2368   1.0000 0.10000  0.95000  0.55000  Biso   1.000  Cu
  Cu2369   1.0000 0.20000  0.90000  0.50000  Biso   1.000  Cu
  Cu2370   1.0000 0.25000  0.95000  0.50000  Biso   1.000  Cu
  Cu2371   1.0000 0.25000  0.90000  0.55000  Biso   1.000  Cu
  Cu2372   1.0000 0.20000  0.95000  0.55000  Biso   1.000  Cu
  Cu2373   1.0000 0.30000  0.90000  0.50000  Biso   1.000  Cu
  Cu2374   1.0000 0.35000  0.95000  0.50000  Biso   1.000  Cu
  Cu2375   1.0000 0.35000  0.90000  0.55000  Biso   1.000  Cu
  Cu2376   1.0000 0.30000  0.95000  0.55000  Biso   1.000  Cu
  Cu2377   1.0000 0.40000  0.90000  0.50000  Biso   1.000  Cu
  Cu2378   1.0000 0.45000  0.95000  0.50000  Biso   1.000  Cu
  Cu2379   1.0000 0.45000  0.90000  0.55000  Biso   1.000  Cu
  Cu2380   1.0000 0.40000  0.95000  0.55000  Biso   1.000  Cu
  Cu2381   1.0000 0.50000  0.90000  0.50000  Biso   1.000  Cu
  Cu2382   1.0000 0.55000  0.95000  0.50000  Biso   1.000  Cu
  Cu2383   1.0000 0.55000  0.90000  0.55000  Biso   1.000  Cu
  Cu2384   1.0000 0.50000  0.95000  0.55000  Biso   1.000  Cu
  Cu2385   1.0000 0.60000  0.90000  0.50000  Biso   1.000  Cu
  Cu2386   1.0000 0.65000  0.95000  0.50000  Biso   1.000  Cu
  Cu2387   1.0000 0.65000  0.90000  0.55000  Biso   1.000  Cu
  Cu2388   1.0000 0.60000  0.95000  0.55000  Biso   1.000  Cu
  Cu2389   1.0000 0.70000  0.90000  0.50000  Biso   1.000  Cu
  Cu2390   1.0000 0.75000  0.95000  0.50000  Biso   1.000  Cu
  Cu2391   1.0000 0.75000  0.90000  0.55000  Biso   1.000  Cu
  Cu2392   1.0000 0.70000  0.95000  0.55000  Biso   1.000  Cu
  Cu2393   1.0000 0.80000  0.90000  0.50000  Biso   1.000  Cu
  Cu2394   1.0000 0.85000  0.95000  0.50000  Biso   1.000  Cu
  Cu2395   1.0000 0.85000  0.90000  0.55000  Biso   1.000  Cu
  Cu2396   1.0000 0.80000  0.95000  0.55000  Biso   1.000  Cu
  Cu2397   1.0000 0.90000  0.90000  0.50000  Biso   1.000  Cu
  Cu2398   1.0000 0.95000  0.95000  0.50000  Biso   1.000  Cu
  Cu2399   1.0000 0.95000  0.90000  0.55000  Biso   1.000  Cu
  Cu2400   1.0000 0.90000  0.95000  0.55000  Biso   1.000  Cu
  Cu2401   1.0000 0.00000  0.00000  0.60000  Biso   1.000  Cu
  Cu2402   1.0000 0.05000  0.05000  0.60000  Biso   1.000  Cu
  Cu2403   1.0000 0.05000  0.00000  0.65000  Biso   1.000  Cu
  Cu2404   1.0000 0.00000  0.05000  0.65000  Biso   1.000  Cu
  Cu2405   1.0000 0.10000  0.00000  0.60000  Biso   1.000  Cu
  Cu2406   1.0000 0.15000  0.05000  0.60000  Biso   1.000  Cu
  Cu2407   1.0000 0.15000  0.00000  0.65000  Biso   1.000  Cu
  Cu2408   1.0000 0.10000  0.05000  0.65000  Biso   1.000  Cu
  Cu2409   1.0000 0.20000  0.00000  0.60000  Biso   1.000  Cu
  Cu2410   1.0000 0.25000  0.05000  0.60000  Biso   1.000  Cu
  Cu2411   1.0000 0.25000  0.00000  0.65000  Biso   1.000  Cu
  Cu2412   1.0000 0.20000  0.05000  0.65000  Biso   1.000  Cu
  Cu2413   1.0000 0.30000  0.00000  0.60000  Biso   1.000  Cu
  Cu2414   1.0000 0.35000  0.05000  0.60000  Biso   1.000  Cu
  Cu2415   1.0000 0.35000  0.00000  0.65000  Biso   1.000  Cu
  Cu2416   1.0000 0.30000  0.05000  0.65000  Biso   1.000  Cu
  Cu2417   1.0000 0.40000  0.00000  0.60000  Biso   1.000  Cu
  Cu2418   1.0000 0.45000  0.05000  0.60000  Biso   1.000  Cu
  Cu2419   1.0000 0.45000  0.00000  0.65000  Biso   1.000  Cu
  Cu2420   1.0000 0.40000  0.05000  0.65000  Biso   1.000  Cu
  Cu2421   1.0000 0.50000  0.00000  0.60000  Biso   1.000  Cu
  Cu2422   1.0000 0.55000  0.05000  0.60000  Biso   1.000  Cu
  Cu2423   1.0000 0.55000  0.00000  0.65000  Biso   1.000  Cu
  Cu2424   1.0000 0.50000  0.05000  0.65000  Biso   1.000  Cu
  Cu2425   1.0000 0.60000  0.00000  0.60000  Biso   1.000  Cu
  Cu2426   1.0000 0.65000  0.05000  0.60000  Biso   1.000  Cu
  Cu2427   1.0000 0.65000  0.00000  0.65000  Biso   1.000  Cu
  Cu2428   1.0000 0.60000  0.05000  0.65000  Biso   1.000  Cu
  Cu2429   1.0000 0.70000  0.00000  0.60000  Biso   1.000  Cu
  Cu2430   1.0000 0.75000  0.05000  0.60000  Biso   1.000  Cu
  Cu2431   1.0000 0.75000  0.00000  0.65000  Biso   1.000  Cu
  Cu2432   1.0000 0.70000  0.05000  0.65000  Biso   1.000  Cu
  Cu2433   1.0000 0.80000  0.00000  0.60000  Biso   1.000  Cu
  Cu2434   1.0000 0.85000  0.05000  0.60000  Biso   1.000  Cu
  Cu2435   1.0000 0.85000  0.00000  0.65000  Biso   1.000  Cu
  Cu2436   1.0000 0.80000  0.05000  0.65000  Biso   1.000  Cu
  Cu2437   1.0000 0.90000  0.00000  0.60000  Biso   1.000  Cu
  Cu2438   1.0000 0.95000  0.05000  0.60000  Biso   1.000  Cu
  Cu2439   1.0000 0.95000  0.00000  0.65000  Biso   1.000  Cu
  Cu2440   1.0000 0.90000  0.05000  0.65000  Biso   1.000  Cu
  Cu2441   1.0000 0.00000  0.10000  0.60000  Biso   1.000  Cu
  Cu2442   1.0000 0.05000  0.15000  0.60000  Biso   1.000  Cu
  Cu2443   1.0000 0.05000  0.10000  0.65000  Biso   1.000  Cu
  Cu2444   1.0000 0.00000  0.15000  0.65000  Biso   1.000  Cu
  Cu2445   1.0000 0.10000  0.10000  0.60000  Biso   1.000  Cu
  Cu2446   1.0000 0.15000  0.15000  0.60000  Biso   1.000  Cu
  Cu2447   1.0000 0.15000  0.10000  0.65000  Biso   1.000  Cu
  Cu2448   1.0000 0.10000  0.15000  0.65000  Biso   1.000  Cu
  Cu2449   1.0000 0.20000  0.10000  0.60000  Biso   1.000  Cu
  Cu2450   1.0000 0.25000  0.15000  0.60000  Biso   1.000  Cu
  Cu2451   1.0000 0.25000  0.10000  0.65000  Biso   1.000  Cu
  Cu2452   1.0000 0.20000  0.15000  0.65000  Biso   1.000  Cu
  Cu2453   1.0000 0.30000  0.10000  0.60000  Biso   1.000  Cu
  Cu2454   1.0000 0.35000  0.15000  0.60000  Biso   1.000  Cu
  Cu2455   1.0000 0.35000  0.10000  0.65000  Biso   1.000  Cu
  Cu2456   1.0000 0.30000  0.15000  0.65000  Biso   1.000  Cu
  Cu2457   1.0000 0.40000  0.10000  0.60000  Biso   1.000  Cu
  Cu2458   1.0000 0.45000  0.15000  0.60000  Biso   1.000  Cu
  Cu2459   1.0000 0.45000  0.10000  0.65000  Biso   1.000  Cu
  Cu2460   1.0000 0.40000  0.15000  0.65000  Biso   1.000  Cu
  Cu2461   1.0000 0.50000  0.10000  0.60000  Biso   1.000  Cu
  Cu2462   1.0000 0.55000  0.15000  0.60000  Biso   1.000  Cu
  Cu2463   1.0000 0.55000  0.10000  0.65000  Biso   1.000  Cu
  Cu2464   1.0000 0.50000  0.15000  0.65000  Biso   1.000  Cu
  Cu2465   1.0000 0.60000  0.10000  0.60000  Biso   1.000  Cu
  Cu2466   1.0000 0.65000  0.15000  0.60000  Biso   1.000  Cu
  Cu2467   1.0000 0.65000  0.10000  0.65000  Biso   1.000  Cu
  Cu2468   1.0000 0.60000  0.15000  0.65000  Biso   1.000  Cu
  Cu2469   1.0000 0.70000  0.10000  0.60000  Biso   1.000  Cu
  Cu2470   1.0000 0.75000  0.15000  0.60000  Biso   1.000  Cu
  Cu2471   1.0000 0.75000  0.10000  0.65000  Biso   1.000  Cu
  Cu2472   1.0000 0.70000  0.15000  0.65000  Biso   1.000  Cu
  Cu2473   1.0000 0.80000  0.10000  0.60000  Biso   1.000  Cu
  Cu2474   1.0000 0.85000  0.15000  0.60000  Biso   1.000  Cu
  Cu2475   1.0000 0.85000  0.10000  0.65000  Biso   1.000  Cu
  Cu2476   1.0000 0.80000  0.15000  0.65000  Biso   1.000  Cu
  Cu2477   1.0000 0.90000  0.10000  0.60000  Biso   1.000  Cu
  Cu2478   1.0000 0.95000  0.15000  0.60000  Biso   1.000  Cu
  Cu2479   1.0000 0.95000  0.10000  0.65000  Biso   1.000  Cu
  Cu2480   1.0000 0.90000  0.15000  0.65000  Biso   1.000  Cu
  Cu2481   1.0000 0.00000  0.20000  0.60000  Biso   1.000  Cu
  Cu2482   1.0000 0.05000  0.25000  0.60000  Biso   1.000  Cu
  Cu2483   1.0000 0.05000  0.20000  0.65000  Biso   1.000  Cu
  Cu2484   1.0000 0.00000  0.25000  0.65000  Biso   1.000  Cu
  Cu2485   1.0000 0.10000  0.20000  0.60000  Biso   1.000  Cu
  Cu2486   1.0000 0.15000  0.25000  0.60000  Biso   1.000  Cu
  Cu2487   1.0000 0.15000  0.20000  0.65000  Biso   1.000  Cu
  Cu2488   1.0000 0.10000  0.25000  0.65000  Biso   1.000  Cu
  Cu2489   1.0000 0.20000  0.20000  0.60000  Biso   1.000  Cu
  Cu2490   1.0000 0.25000  0.25000  0.60000  Biso   1.000  Cu
  Cu2491   1.0000 0.25000  0.20000  0.65000  Biso   1.000  Cu
  Cu2492   1.0000 0.20000  0.25000  0.65000  Biso   1.000  Cu
  Cu2493   1.0000 0.30000  0.20000  0.60000  Biso   1.000  Cu
  Cu2494   1.0000 0.35000  0.25000  0.60000  Biso   1.000  Cu
  Cu2495   1.0000 0.35000  0.20000  0.65000  Biso   1.000  Cu
  Cu2496   1.0000 0.30000  0.25000  0.65000  Biso   1.000  Cu
  Cu2497   1.0000 0.40000  0.20000  0.60000  Biso   1.000  Cu
  Cu2498   1.0000 0.45000  0.25000  0.60000  Biso   1.000  Cu
  Cu2499   1.0000 0.45000  0.20000  0.65000  Biso   1.000  Cu
  Cu2500   1.0000 0.40000  0.25000  0.65000  Biso   1.000  Cu
  Cu2501   1.0000 0.50000  0.20000  0.60000  Biso   1.000  Cu
  Cu2502   1.0000 0.55000  0.25000  0.60000  Biso   1.000  Cu
  Cu2503   1.0000 0.55000  0.20000  0.65000  Biso   1.000  Cu
  Cu2504   1.0000 0.50000  0.25000  0.65000  Biso   1.000  Cu
  Cu2505   1.0000 0.60000  0.20000  0.60000  Biso   1.000  Cu
  Cu2506   1.0000 0.65000  0.25000  0.60000  Biso   1.000  Cu
  Cu2507   1.0000 0.65000  0.20000  0.65000  Biso   1.000  Cu
  Cu2508   1.0000 0.60000  0.25000  0.65000  Biso   1.000  Cu
  Cu2509   1.0000 0.70000  0.20000  0.60000  Biso   1.000  Cu
  Cu2510   1.0000 0.75000  0.25000  0.60000  Biso   1.000  Cu
  Cu2511   1.0000 0.75000  0.20000  0.65000  Biso   1.000  Cu
  Cu2512   1.0000 0.70000  0.25000  0.65000  Biso   1.000  Cu
  Cu2513   1.0000 0.80000  0.20000  0.60000  Biso   1.000  Cu
  Cu2514   1.0000 0.85000  0.25000  0.60000  Biso   1.000  Cu
  Cu2515   1.0000 0.85000  0.20000  0.65000  Biso   1.000  Cu
  Cu2516   1.0000 0.80000  0.25000  0.65000  Biso   1.000  Cu
  Cu2517   1.0000 0.90000  0.20000  0.60000  Biso   1.000  Cu
  Cu2518   1.0000 0.95000  0.25000  0.60000  Biso   1.000  Cu
  Cu2519   1.0000 0.95000  0.20000  0.65000  Biso   1.000  Cu
  Cu2520   1.0000 0.90000  0.25000  0.65000  Biso   1.000  Cu
  Cu2521   1.0000 0.00000  0.30000  0.60000  Biso   1.000  Cu
  Cu2522   1.0000 0.05000  0.35000  0.60000  Biso   1.000  Cu
  Cu2523   1.0000 0.05000  0.30000  0.65000  Biso   1.000  Cu
  Cu2524   1.0000 0.00000  0.35000  0.65000  Biso   1.000  Cu
  Cu2525   1.0000 0.10000  0.30000  0.60000  Biso   1.000  Cu
  Cu2526   1.0000 0.15000  0.35000  0.60000  Biso   1.000  Cu
  Cu2527   1.0000 0.15000  0.30000  0.65000  Biso   1.000  Cu
  Cu2528   1.0000 0.10000  0.35000  0.65000  Biso   1.000  Cu
  Cu2529   1.0000 0.20000  0.30000  0.60000  Biso   1.000  Cu
  Cu2530   1.0000 0.25000  0.35000  0.60000  Biso   1.000  Cu
  Cu2531   1.0000 0.25000  0.30000  0.65000  Biso   1.000  Cu
  Cu2532   1.0000 0.20000  0.35000  0.65000  Biso   1.000  Cu
  Cu2533   1.0000 0.30000  0.30000  0.60000  Biso   1.000  Cu
  Cu2534   1.0000 0.35000  0.35000  0.60000  Biso   1.000  Cu
  Cu2535   1.0000 0.35000  0.30000  0.65000  Biso   1.000  Cu
  Cu2536   1.0000 0.30000  0.35000  0.65000  Biso   1.000  Cu
  Cu2537   1.0000 0.40000  0.30000  0.60000  Biso   1.000  Cu
  Cu2538   1.0000 0.45000  0.35000  0.60000  Biso   1.000  Cu
  Cu2539   1.0000 0.45000  0.30000  0.65000  Biso   1.000  Cu
  Cu2540   1.0000 0.40000  0.35000  0.65000  Biso   1.000  Cu
  Cu2541   1.0000 0.50000  0.30000  0.60000  Biso   1.000  Cu
  Cu2542   1.0000 0.55000  0.35000  0.60000  Biso   1.000  Cu
  Cu2543   1.0000 0.55000  0.30000  0.65000  Biso   1.000  Cu
  Cu2544   1.0000 0.50000  0.35000  0.65000  Biso   1.000  Cu
  Cu2545   1.0000 0.60000  0.30000  0.60000  Biso   1.000  Cu
  Cu2546   1.0000 0.65000  0.35000  0.60000  Biso   1.000  Cu
  Cu2547   1.0000 0.65000  0.30000  0.65000  Biso   1.000  Cu
  Cu2548   1.0000 0.60000  0.35000  0.65000  Biso   1.000  Cu
  Cu2549   1.0000 0.70000  0.30000  0.60000  Biso   1.000  Cu
  Cu2550   1.0000 0.75000  0.35000  0.60000  Biso   1.000  Cu
  Cu2551   1.0000 0.75000  0.30000  0.65000  Biso   1.000  Cu
  Cu2552   1.0000 0.70000  0.35000  0.65000  Biso   1.000  Cu
  Cu2553   1.0000 0.80000  0.30000  0.60000  Biso   1.000  Cu
  Cu2554   1.0000 0.85000  0.35000  0.60000  Biso   1.000  Cu
  Cu2555   1.0000 0.85000  0.30000  0.65000  Biso   1.000  Cu
  Cu2556   1.0000 0.80000  0.35000  0.65000  Biso   1.000  Cu
  Cu2557   1.0000 0.90000  0.30000  0.60000  Biso   1.000  Cu
  Cu2558   1.0000 0.95000  0.35000  0.60000  Biso   1.000  Cu
  Cu2559   1.0000 0.95000  0.30000  0.65000  Biso   1.000  Cu
  Cu2560   1.0000 0.90000  0.35000  0.65000  Biso   1.000  Cu
  Cu2561   1.0000 0.00000  0.40000  0.60000  Biso   1.000  Cu
  Cu2562   1.0000 0.05000  0.45000  0.60000  Biso   1.000  Cu
  Cu2563   1.0000 0.05000  0.40000  0.65000  Biso   1.000  Cu
  Cu2564   1.0000 0.00000  0.45000  0.65000  Biso   1.000  Cu
  Cu2565   1.0000 0.10000  0.40000  0.60000  Biso   1.000  Cu
  Cu2566   1.0000 0.15000  0.45000  0.60000  Biso   1.000  Cu
  Cu2567   1.0000 0.15000  0.40000  0.65000  Biso   1.000  Cu
  Cu2568   1.0000 0.10000  0.45000  0.65000  Biso   1.000  Cu
  Cu2569   1.0000 0.20000  0.40000  0.60000  Biso   1.000  Cu
  Cu2570   1.0000 0.25000  0.45000  0.60000  Biso   1.000  Cu
  Cu2571   1.0000 0.25000  0.40000  0.65000  Biso   1.000  Cu
  Cu2572   1.0000 0.20000  0.45000  0.65000  Biso   1.000  Cu
  Cu2573   1.0000 0.30000  0.40000  0.60000  Biso   1.000  Cu
  Cu2574   1.0000 0.35000  0.45000  0.60000  Biso   1.000  Cu
  Cu2575   1.0000 0.35000  0.40000  0.65000  Biso   1.000  Cu
  Cu2576   1.0000 0.30000  0.45000  0.65000  Biso   1.000  Cu
  Cu2577   1.0000 0.40000  0.40000  0.60000  Biso   1.000  Cu
  Cu2578   1.0000 0.45000  0.45000  0.60000  Biso   1.000  Cu
  Cu2579   1.0000 0.45000  0.40000  0.65000  Biso   1.000  Cu
  Cu2580   1.0000 0.40000  0.45000  0.65000  Biso   1.000  Cu
  Cu2581   1.0000 0.50000  0.40000  0.60000  Biso   1.000  Cu
  Cu2582   1.0000 0.55000  0.45000  0.60000  Biso   1.000  Cu
  Cu2583   1.0000 0.55000  0.40000  0.65000  Biso   1.000  Cu
  Cu2584   1.0000 0.50000  0.45000  0.65000  Biso   1.000  Cu
  Cu2585   1.0000 0.60000  0.40000  0.60000  Biso   1.000  Cu
  Cu2586   1.0000 0.65000  0.45000  0.60000  Biso   1.000  Cu
  Cu2587   1.0000 0.65000  0.40000  0.65000  Biso   1.000  Cu
  Cu2588   1.0000 0.60000  0.45000  0.65000  Biso   1.000  Cu
  Cu2589   1.0000 0.70000  0.40000  0.60000  Biso   1.000  Cu
  Cu2590   1.0000 0.75000  0.45000  0.60000  Biso   1.000  Cu
  Cu2591   1.0000 0.75000  0.40000  0.65000  Biso   1.000  Cu
  Cu2592   1.0000 0.70000  0.45000  0.65000  Biso   1.000  Cu
  Cu2593   1.0000 0.80000  0.40000  0.60000  Biso   1.000  Cu
  Cu2594   1.0000 0.85000  0.45000  0.60000  Biso   1.000  Cu
  Cu2595   1.0000 0.85000  0.40000  0.65000  Biso   1.000  Cu
  Cu2596   1.0000 0.80000  0.45000  0.65000  Biso   1.000  Cu
  Cu2597   1.0000 0.90000  0.40000  0.60000  Biso   1.000  Cu
  Cu2598   1.0000 0.95000  0.45000  0.60000  Biso   1.000  Cu
  Cu2599   1.0000 0.95000  0.40000  0.65000  Biso   1.000  Cu
  Cu2600   1.0000 0.90000  0.45000  0.65000  Biso   1.000  Cu
  Cu2601   1.0000 0.00000  0.50000  0.60000  Biso   1.000  Cu
  Cu2602   1.0000 0.05000  0.55000  0.60000  Biso   1.000  Cu
  Cu2603   1.0000 0.05000  0.50000  0.65000  Biso   1.000  Cu
  Cu2604   1.0000 0.00000  0.55000  0.65000  Biso   1.000  Cu
  Cu2605   1.0000 0.10000  0.50000  0.60000  Biso   1.000  Cu
  Cu2606   1.0000 0.15000  0.55000  0.60000  Biso   1.000  Cu
  Cu2607   1.0000 0.15000  0.50000  0.65000  Biso   1.000  Cu
  Cu2608   1.0000 0.10000  0.55000  0.65000  Biso   1.000  Cu
  Cu2609   1.0000 0.20000  0.50000  0.60000  Biso   1.000  Cu
  Cu2610   1.0000 0.25000  0.55000  0.60000  Biso   1.000  Cu
  Cu2611   1.0000 0.25000  0.50000  0.65000  Biso   1.000  Cu
  Cu2612   1.0000 0.20000  0.55000  0.65000  Biso   1.000  Cu
  Cu2613   1.0000 0.30000  0.50000  0.60000  Biso   1.000  Cu
  Cu2614   1.0000 0.35000  0.55000  0.60000  Biso   1.000  Cu
  Cu2615   1.0000 0.35000  0.50000  0.65000  Biso   1.000  Cu
  Cu2616   1.0000 0.30000  0.55000  0.65000  Biso   1.000  Cu
  Cu2617   1.0000 0.40000  0.50000  0.60000  Biso   1.000  Cu
  Cu2618   1.0000 0.45000  0.55000  0.60000  Biso   1.000  Cu
  Cu2619   1.0000 0.45000  0.50000  0.65000  Biso   1.000  Cu
  Cu2620   1.0000 0.40000  0.55000  0.65000  Biso   1.000  Cu
  Cu2621   1.0000 0.50000  0.50000  0.60000  Biso   1.000  Cu
  Cu2622   1.0000 0.55000  0.55000  0.60000  Biso   1.000  Cu
  Cu2623   1.0000 0.55000  0.50000  0.65000  Biso   1.000  Cu
  Cu2624   1.0000 0.50000  0.55000  0.65000  Biso   1.000  Cu
  Cu2625   1.0000 0.60000  0.50000  0.60000  Biso   1.000  Cu
  Cu2626   1.0000 0.65000  0.55000  0.60000  Biso   1.000  Cu
  Cu2627   1.0000 0.65000  0.50000  0.65000  Biso   1.000  Cu
  Cu2628   1.0000 0.60000  0.55000  0.65000  Biso   1.000  Cu
  Cu2629   1.0000 0.70000  0.50000  0.60000  Biso   1.000  Cu
  Cu2630   1.0000 0.75000  0.55000  0.60000  Biso   1.000  Cu
  Cu2631   1.0000 0.75000  0.50000  0.65000  Biso   1.000  Cu
  Cu2632   1.0000 0.70000  0.55000  0.65000  Biso   1.000  Cu
  Cu2633   1.0000 0.80000  0.50000  0.60000  Biso   1.000  Cu
  Cu2634   1.0000 0.85000  0.55000  0.60000  Biso   1.000  Cu
  Cu2635   1.0000 0.85000  0.50000  0.65000  Biso   1.000  Cu
  Cu2636   1.0000 0.80000  0.55000  0.65000  Biso   1.000  Cu
  Cu2637   1.0000 0.90000  0.50000  0.60000  Biso   1.000  Cu
  Cu2638   1.0000 0.95000  0.55000  0.60000  Biso   1.000  Cu
  Cu2639   1.0000 0.95000  0.50000  0.65000  Biso   1.000  Cu
  Cu2640   1.0000 0.90000  0.55000  0.65000  Biso   1.000  Cu
  Cu2641   1.0000 0.00000  0.60000  0.60000  Biso   1.000  Cu
  Cu2642   1.0000 0.05000  0.65000  0.60000  Biso   1.000  Cu
  Cu2643   1.0000 0.05000  0.60000  0.65000  Biso   1.000  Cu
  Cu2644   1.0000 0.00000  0.65000  0.65000  Biso   1.000  Cu
  Cu2645   1.0000 0.10000  0.60000  0.60000  Biso   1.000  Cu
  Cu2646   1.0000 0.15000  0.65000  0.60000  Biso   1.000  Cu
  Cu2647   1.0000 0.15000  0.60000  0.65000  Biso   1.000  Cu
  Cu2648   1.0000 0.10000  0.65000  0.65000  Biso   1.000  Cu
  Cu2649   1.0000 0.20000  0.60000  0.60000  Biso   1.000  Cu
  Cu2650   1.0000 0.25000  0.65000  0.60000  Biso   1.000  Cu
  Cu2651   1.0000 0.25000  0.60000  0.65000  Biso   1.000  Cu
  Cu2652   1.0000 0.20000  0.65000  0.65000  Biso   1.000  Cu
  Cu2653   1.0000 0.30000  0.60000  0.60000  Biso   1.000  Cu
  Cu2654   1.0000 0.35000  0.65000  0.60000  Biso   1.000  Cu
  Cu2655   1.0000 0.35000  0.60000  0.65000  Biso   1.000  Cu
  Cu2656   1.0000 0.30000  0.65000  0.65000  Biso   1.000  Cu
  Cu2657   1.0000 0.40000  0.60000  0.60000  Biso   1.000  Cu
  Cu2658   1.0000 0.45000  0.65000  0.60000  Biso   1.000  Cu
  Cu2659   1.0000 0.45000  0.60000  0.65000  Biso   1.000  Cu
  Cu2660   1.0000 0.40000  0.65000  0.65000  Biso   1.000  Cu
  Cu2661   1.0000 0.50000  0.60000  0.60000  Biso   1.000  Cu
  Cu2662   1.0000 0.55000  0.65000  0.60000  Biso   1.000  Cu
  Cu2663   1.0000 0.55000  0.60000  0.65000  Biso   1.000  Cu
  Cu2664   1.0000 0.50000  0.65000  0.65000  Biso   1.000  Cu
  Cu2665   1.0000 0.60000  0.60000  0.60000  Biso   1.000  Cu
  Cu2666   1.0000 0.65000  0.65000  0.60000  Biso   1.000  Cu
  Cu2667   1.0000 0.65000  0.60000  0.65000  Biso   1.000  Cu
  Cu2668   1.0000 0.60000  0.65000  0.65000  Biso   1.000  Cu
  Cu2669   1.0000 0.70000  0.60000  0.60000  Biso   1.000  Cu
  Cu2670   1.0000 0.75000  0.65000  0.60000  Biso   1.000  Cu
  Cu2671   1.0000 0.75000  0.60000  0.65000  Biso   1.000  Cu
  Cu2672   1.0000 0.70000  0.65000  0.65000  Biso   1.000  Cu
  Cu2673   1.0000 0.80000  0.60000  0.60000  Biso   1.000  Cu
  Cu2674   1.0000 0.85000  0.65000  0.60000  Biso   1.000  Cu
  Cu2675   1.0000 0.85000  0.60000  0.65000  Biso   1.000  Cu
  Cu2676   1.0000 0.80000  0.65000  0.65000  Biso   1.000  Cu
  Cu2677   1.0000 0.90000  0.60000  0.60000  Biso   1.000  Cu
  Cu2678   1.0000 0.95000  0.65000  0.60000  Biso   1.000  Cu
  Cu2679   1.0000 0.95000  0.60000  0.65000  Biso   1.000  Cu
  Cu2680   1.0000 0.90000  0.65000  0.65000  Biso   1.000  Cu
  Cu2681   1.0000 0.00000  0.70000  0.60000  Biso   1.000  Cu
  Cu2682   1.0000 0.05000  0.75000  0.60000  Biso   1.000  Cu
  Cu2683   1.0000 0.05000  0.70000  0.65000  Biso   1.000  Cu
  Cu2684   1.0000 0.00000  0.75000  0.65000  Biso   1.000  Cu
  Cu2685   1.0000 0.10000  0.70000  0.60000  Biso   1.000  Cu
  Cu2686   1.0000 0.15000  0.75000  0.60000  Biso   1.000  Cu
  Cu2687   1.0000 0.15000  0.70000  0.65000  Biso   1.000  Cu
  Cu2688   1.0000 0.10000  0.75000  0.65000  Biso   1.000  Cu
  Cu2689   1.0000 0.20000  0.70000  0.60000  Biso   1.000  Cu
  Cu2690   1.0000 0.25000  0.75000  0.60000  Biso   1.000  Cu
  Cu2691   1.0000 0.25000  0.70000  0.65000  Biso   1.000  Cu
  Cu2692   1.0000 0.20000  0.75000  0.65000  Biso   1.000  Cu
  Cu2693   1.0000 0.30000  0.70000  0.60000  Biso   1.000  Cu
  Cu2694   1.0000 0.35000  0.75000  0.60000  Biso   1.000  Cu
  Cu2695   1.0000 0.35000  0.70000  0.65000  Biso   1.000  Cu
  Cu2696   1.0000 0.30000  0.75000  0.65000  Biso   1.000  Cu
  Cu2697   1.0000 0.40000  0.70000  0.60000  Biso   1.000  Cu
  Cu2698   1.0000 0.45000  0.75000  0.60000  Biso   1.000  Cu
  Cu2699   1.0000 0.45000  0.70000  0.65000  Biso   1.000  Cu
  Cu2700   1.0000 0.40000  0.75000  0.65000  Biso   1.000  Cu
  Cu2701   1.0000 0.50000  0.70000  0.60000  Biso   1.000  Cu
  Cu2702   1.0000 0.55000  0.75000  0.60000  Biso   1.000  Cu
  Cu2703   1.0000 0.55000  0.70000  0.65000  Biso   1.000  Cu
  Cu2704   1.0000 0.50000  0.75000  0.65000  Biso   1.000  Cu
  Cu2705   1.0000 0.60000  0.70000  0.60000  Biso   1.000  Cu
  Cu2706   1.0000 0.65000  0.75000  0.60000  Biso   1.000  Cu
  Cu2707   1.0000 0.65000  0.70000  0.65000  Biso   1.000  Cu
  Cu2708   1.0000 0.60000  0.75000  0.65000  Biso   1.000  Cu
  Cu2709   1.0000 0.70000  0.70000  0.60000  Biso   1.000  Cu
  Cu2710   1.0000 0.75000  0.75000  0.60000  Biso   1.000  Cu
  Cu2711   1.0000 0.75000  0.70000  0.65000  Biso   1.000  Cu
  Cu2712   1.0000 0.70000  0.75000  0.65000  Biso   1.000  Cu
  Cu2713   1.0000 0.80000  0.70000  0.60000  Biso   1.000  Cu
  Cu2714   1.0000 0.85000  0.75000  0.60000  Biso   1.000  Cu
  Cu2715   1.0000 0.85000  0.70000  0.65000  Biso   1.000  Cu
  Cu2716   1.0000 0.80000  0.75000  0.65000  Biso   1.000  Cu
  Cu2717   1.0000 0.90000  0.70000  0.60000  Biso   1.000  Cu
  Cu2718   1.0000 0.95000  0.75000  0.60000  Biso   1.000  Cu
  Cu2719   1.0000 0.95000  0.70000  0.65000  Biso   1.000  Cu
  Cu2720   1.0000 0.90000  0.75000  0.65000  Biso   1.000  Cu
  Cu2721   1.0000 0.00000  0.80000  0.60000  Biso   1.000  Cu
  Cu2722   1.0000 0.05000  0.85000  0.60000  Biso   1.000  Cu
  Cu2723   1.0000 0.05000  0.80000  0.65000  Biso   1.000  Cu
  Cu2724   1.0000 0.00000  0.85000  0.65000  Biso   1.000  Cu
  Cu2725   1.0000 0.10000  0.80000  0.60000  Biso   1.000  Cu
  Cu2726   1.0000 0.15000  0.85000  0.60000  Biso   1.000  Cu
  Cu2727   1.0000 0.15000  0.80000  0.65000  Biso   1.000  Cu
  Cu2728   1.0000 0.10000  0.85000  0.65000  Biso   1.000  Cu
  Cu2729   1.0000 0.20000  0.80000  0.60000  Biso   1.000  Cu
  Cu2730   1.0000 0.25000  0.85000  0.60000  Biso   1.000  Cu
  Cu2731   1.0000 0.25000  0.80000  0.65000  Biso   1.000  Cu
  Cu2732   1.0000 0.20000  0.85000  0.65000  Biso   1.000  Cu
  Cu2733   1.0000 0.30000  0.80000  0.60000  Biso   1.000  Cu
  Cu2734   1.0000 0.35000  0.85000  0.60000  Biso   1.000  Cu
  Cu2735   1.0000 0.35000  0.80000  0.65000  Biso   1.000  Cu
  Cu2736   1.0000 0.30000  0.85000  0.65000  Biso   1.000  Cu
  Cu2737   1.0000 0.40000  0.80000  0.60000  Biso   1.000  Cu
  Cu2738   1.0000 0.45000  0.85000  0.60000  Biso   1.000  Cu
  Cu2739   1.0000 0.45000  0.80000  0.65000  Biso   1.000  Cu
  Cu2740   1.0000 0.40000  0.85000  0.65000  Biso   1.000  Cu
  Cu2741   1.0000 0.50000  0.80000  0.60000  Biso   1.000  Cu
  Cu2742   1.0000 0.55000  0.85000  0.60000  Biso   1.000  Cu
  Cu2743   1.0000 0.55000  0.80000  0.65000  Biso   1.000  Cu
  Cu2744   1.0000 0.50000  0.85000  0.65000  Biso   1.000  Cu
  Cu2745   1.0000 0.60000  0.80000  0.60000  Biso   1.000  Cu
  Cu2746   1.0000 0.65000  0.85000  0.60000  Biso   1.000  Cu
  Cu2747   1.0000 0.65000  0.80000  0.65000  Biso   1.000  Cu
  Cu2748   1.0000 0.60000  0.85000  0.65000  Biso   1.000  Cu
  Cu2749   1.0000 0.70000  0.80000  0.60000  Biso   1.000  Cu
  Cu2750   1.0000 0.75000  0.85000  0.60000  Biso   1.000  Cu
  Cu2751   1.0000 0.75000  0.80000  0.65000  Biso   1.000  Cu
  Cu2752   1.0000 0.70000  0.85000  0.65000  Biso   1.000  Cu
  Cu2753   1.0000 0.80000  0.80000  0.60000  Biso   1.000  Cu
  Cu2754   1.0000 0.85000  0.85000  0.60000  Biso   1.000  Cu
  Cu2755   1.0000 0.85000  0.80000  0.65000  Biso   1.000  Cu
  Cu2756   1.0000 0.80000  0.85000  0.65000  Biso   1.000  Cu
  Cu2757   1.0000 0.90000  0.80000  0.60000  Biso   1.000  Cu
  Cu2758   1.0000 0.95000  0.85000  0.60000  Biso   1.000  Cu
  Cu2759   1.0000 0.95000  0.80000  0.65000  Biso   1.000  Cu
  Cu2760   1.0000 0.90000  0.85000  0.65000  Biso   1.000  Cu
  Cu2761   1.0000 0.00000  0.90000  0.60000  Biso   1.000  Cu
  Cu2762   1.0000 0.05000  0.95000  0.60000  Biso   1.000  Cu
  Cu2763   1.0000 0.05000  0.90000  0.65000  Biso   1.000  Cu
  Cu2764   1.0000 0.00000  0.95000  0.65000  Biso   1.000  Cu
  Cu2765   1.0000 0.10000  0.90000  0.60000  Biso   1.000  Cu
  Cu2766   1.0000 0.15000  0.95000  0.60000  Biso   1.000  Cu
  Cu2767   1.0000 0.15000  0.90000  0.65000  Biso   1.000  Cu
  Cu2768   1.0000 0.10000  0.95000  0.65000  Biso   1.000  Cu
  Cu2769   1.0000 0.20000  0.90000  0.60000  Biso   1.000  Cu
  Cu2770   1.0000 0.25000  0.95000  0.60000  Biso   1.000  Cu
  Cu2771   1.0000 0.25000  0.90000  0.65000  Biso   1.000  Cu
  Cu2772   1.0000 0.20000  0.95000  0.65000  Biso   1.000  Cu
  Cu2773   1.0000 0.30000  0.90000  0.60000  Biso   1.000  Cu
  Cu2774   1.0000 0.35000  0.95000  0.60000  Biso   1.000  Cu
  Cu2775   1.0000 0.35000  0.90000  0.65000  Biso   1.000  Cu
  Cu2776   1.0000 0.30000  0.95000  0.65000  Biso   1.000  Cu
  Cu2777   1.0000 0.40000  0.90000  0.60000  Biso   1.000  Cu
  Cu2778   1.0000 0.45000  0.95000  0.60000  Biso   1.000  Cu
  Cu2779   1.0000 0.45000  0.90000  0.65000  Biso   1.000  Cu
  Cu2780   1.0000 0.40000  0.95000  0.65000  Biso   1.000  Cu
  Cu2781   1.0000 0.50000  0.90000  0.60000  Biso   1.000  Cu
  Cu2782   1.0000 0.55000  0.95000  0.60000  Biso   1.000  Cu
  Cu2783   1.0000 0.55000  0.90000  0.65000  Biso   1.000  Cu
  Cu2784   1.0000 0.50000  0.95000  0.65000  Biso   1.000  Cu
  Cu2785   1.0000 0.60000  0.90000  0.60000  Biso   1.000  Cu
  Cu2786   1.0000 0.65000  0.95000  0.60000  Biso   1.000  Cu
  Cu2787   1.0000 0.65000  0.90000  0.65000  Biso   1.000  Cu
  Cu2788   1.0000 0.60000  0.95000  0.65000  Biso   1.000  Cu
  Cu2789   1.0000 0.70000  0.90000  0.60000  Biso   1.000  Cu
  Cu2790   1.0000 0.75000  0.95000  0.60000  Biso   1.000  Cu
  Cu2791   1.0000 0.75000  0.90000  0.65000  Biso   1.000  Cu
  Cu2792   1.0000 0.70000  0.95000  0.65000  Biso   1.000  Cu
  Cu2793   1.0000 0.80000  0.90000  0.60000  Biso   1.000  Cu
  Cu2794   1.0000 0.85000  0.95000  0.60000  Biso   1.000  Cu
  Cu2795   1.0000 0.85000  0.90000  0.65000  Biso   1.000  Cu
  Cu2796   1.0000 0.80000  0.95000  0.65000  Biso   1.000  Cu
  Cu2797   1.0000 0.90000  0.90000  0.60000  Biso   1.000  Cu
  Cu2798   1.0000 0.95000  0.95000  0.60000  Biso   1.000  Cu
  Cu2799   1.0000 0.95000  0.90000  0.65000  Biso   1.000  Cu
  Cu2800   1.0000 0.90000  0.95000  0.65000  Biso   1.000  Cu
  Cu2801   1.0000 0.00000  0.00000  0.70000  Biso   1.000  Cu
  Cu2802   1.0000 0.05000  0.05000  0.70000  Biso   1.000  Cu
  Cu2803   1.0000 0.05000  0.00000  0.75000  Biso   1.000  Cu
  Cu2804   1.0000 0.00000  0.05000  0.75000  Biso   1.000  Cu
  Cu2805   1.0000 0.10000  0.00000  0.70000  Biso   1.000  Cu
  Cu2806   1.0000 0.15000  0.05000  0.70000  Biso   1.000  Cu
  Cu2807   1.0000 0.15000  0.00000  0.75000  Biso   1.000  Cu
  Cu2808   1.0000 0.10000  0.05000  0.75000  Biso   1.000  Cu
  Cu2809   1.0000 0.20000  0.00000  0.70000  Biso   1.000  Cu
  Cu2810   1.0000 0.25000  0.05000  0.70000  Biso   1.000  Cu
  Cu2811   1.0000 0.25000  0.00000  0.75000  Biso   1.000  Cu
  Cu2812   1.0000 0.20000  0.05000  0.75000  Biso   1.000  Cu
  Cu2813   1.0000 0.30000  0.00000  0.70000  Biso   1.000  Cu
  Cu2814   1.0000 0.35000  0.05000  0.70000  Biso   1.000  Cu
  Cu2815   1.0000 0.35000  0.00000  0.75000  Biso   1.000  Cu
  Cu2816   1.0000 0.30000  0.05000  0.75000  Biso   1.000  Cu
  Cu2817   1.0000 0.40000  0.00000  0.70000  Biso   1.000  Cu
  Cu2818   1.0000 0.45000  0.05000  0.70000  Biso   1.000  Cu
  Cu2819   1.0000 0.45000  0.00000  0.75000  Biso   1.000  Cu
  Cu2820   1.0000 0.40000  0.05000  0.75000  Biso   1.000  Cu
  Cu2821   1.0000 0.50000  0.00000  0.70000  Biso   1.000  Cu
  Cu2822   1.0000 0.55000  0.05000  0.70000  Biso   1.000  Cu
  Cu2823   1.0000 0.55000  0.00000  0.75000  Biso   1.000  Cu
  Cu2824   1.0000 0.50000  0.05000  0.75000  Biso   1.000  Cu
  Cu2825   1.0000 0.60000  0.00000  0.70000  Biso   1.000  Cu
  Cu2826   1.0000 0.65000  0.05000  0.70000  Biso   1.000  Cu
  Cu2827   1.0000 0.65000  0.00000  0.75000  Biso   1.000  Cu
  Cu2828   1.0000 0.60000  0.05000  0.75000  Biso   1.000  Cu
  Cu2829   1.0000 0.70000  0.00000  0.70000  Biso   1.000  Cu
  Cu2830   1.0000 0.75000  0.05000  0.70000  Biso   1.000  Cu
  Cu2831   1.0000 0.75000  0.00000  0.75000  Biso   1.000  Cu
  Cu2832   1.0000 0.70000  0.05000  0.75000  Biso   1.000  Cu
  Cu2833   1.0000 0.80000  0.00000  0.70000  Biso   1.000  Cu
  Cu2834   1.0000 0.85000  0.05000  0.70000  Biso   1.000  Cu
  Cu2835   1.0000 0.85000  0.00000  0.75000  Biso   1.000  Cu
  Cu2836   1.0000 0.80000  0.05000  0.75000  Biso   1.000  Cu
  Cu2837   1.0000 0.90000  0.00000  0.70000  Biso   1.000  Cu
  Cu2838   1.0000 0.95000  0.05000  0.70000  Biso   1.000  Cu
  Cu2839   1.0000 0.95000  0.00000  0.75000  Biso   1.000  Cu
  Cu2840   1.0000 0.90000  0.05000  0.75000  Biso   1.000  Cu
  Cu2841   1.0000 0.00000  0.10000  0.70000  Biso   1.000  Cu
  Cu2842   1.0000 0.05000  0.15000  0.70000  Biso   1.000  Cu
  Cu2843   1.0000 0.05000  0.10000  0.75000  Biso   1.000  Cu
  Cu2844   1.0000 0.00000  0.15000  0.75000  Biso   1.000  Cu
  Cu2845   1.0000 0.10000  0.10000  0.70000  Biso   1.000  Cu
  Cu2846   1.0000 0.15000  0.15000  0.70000  Biso   1.000  Cu
  Cu2847   1.0000 0.15000  0.10000  0.75000  Biso   1.000  Cu
  Cu2848   1.0000 0.10000  0.15000  0.75000  Biso   1.000  Cu
  Cu2849   1.0000 0.20000  0.10000  0.70000  Biso   1.000  Cu
  Cu2850   1.0000 0.25000  0.15000  0.70000  Biso   1.000  Cu
  Cu2851   1.0000 0.25000  0.10000  0.75000  Biso   1.000  Cu
  Cu2852   1.0000 0.20000  0.15000  0.75000  Biso   1.000  Cu
  Cu2853   1.0000 0.30000  0.10000  0.70000  Biso   1.000  Cu
  Cu2854   1.0000 0.35000  0.15000  0.70000  Biso   1.000  Cu
  Cu2855   1.0000 0.35000  0.10000  0.75000  Biso   1.000  Cu
  Cu2856   1.0000 0.30000  0.15000  0.75000  Biso   1.000  Cu
  Cu2857   1.0000 0.40000  0.10000  0.70000  Biso   1.000  Cu
  Cu2858   1.0000 0.45000  0.15000  0.70000  Biso   1.000  Cu
  Cu2859   1.0000 0.45000  0.10000  0.75000  Biso   1.000  Cu
  Cu2860   1.0000 0.40000  0.15000  0.75000  Biso   1.000  Cu
  Cu2861   1.0000 0.50000  0.10000  0.70000  Biso   1.000  Cu
  Cu2862   1.0000 0.55000  0.15000  0.70000  Biso   1.000  Cu
  Cu2863   1.0000 0.55000  0.10000  0.75000  Biso   1.000  Cu
  Cu2864   1.0000 0.50000  0.15000  0.75000  Biso   1.000  Cu
  Cu2865   1.0000 0.60000  0.10000  0.70000  Biso   1.000  Cu
  Cu2866   1.0000 0.65000  0.15000  0.70000  Biso   1.000  Cu
  Cu2867   1.0000 0.65000  0.10000  0.75000  Biso   1.000  Cu
  Cu2868   1.0000 0.60000  0.15000  0.75000  Biso   1.000  Cu
  Cu2869   1.0000 0.70000  0.10000  0.70000  Biso   1.000  Cu
  Cu2870   1.0000 0.75000  0.15000  0.70000  Biso   1.000  Cu
  Cu2871   1.0000 0.75000  0.10000  0.75000  Biso   1.000  Cu
  Cu2872   1.0000 0.70000  0.15000  0.75000  Biso   1.000  Cu
  Cu2873   1.0000 0.80000  0.10000  0.70000  Biso   1.000  Cu
  Cu2874   1.0000 0.85000  0.15000  0.70000  Biso   1.000  Cu
  Cu2875   1.0000 0.85000  0.10000  0.75000  Biso   1.000  Cu
  Cu2876   1.0000 0.80000  0.15000  0.75000  Biso   1.000  Cu
  Cu2877   1.0000 0.90000  0.10000  0.70000  Biso   1.000  Cu
  Cu2878   1.0000 0.95000  0.15000  0.70000  Biso   1.000  Cu
  Cu2879   1.0000 0.95000  0.10000  0.75000  Biso   1.000  Cu
  Cu2880   1.0000 0.90000  0.15000  0.75000  Biso   1.000  Cu
  Cu2881   1.0000 0.00000  0.20000  0.70000  Biso   1.000  Cu
  Cu2882   1.0000 0.05000  0.25000  0.70000  Biso   1.000  Cu
  Cu2883   1.0000 0.05000  0.20000  0.75000  Biso   1.000  Cu
  Cu2884   1.0000 0.00000  0.25000  0.75000  Biso   1.000  Cu
  Cu2885   1.0000 0.10000  0.20000  0.70000  Biso   1.000  Cu
  Cu2886   1.0000 0.15000  0.25000  0.70000  Biso   1.000  Cu
  Cu2887   1.0000 0.15000  0.20000  0.75000  Biso   1.000  Cu
  Cu2888   1.0000 0.10000  0.25000  0.75000  Biso   1.000  Cu
  Cu2889   1.0000 0.20000  0.20000  0.70000  Biso   1.000  Cu
  Cu2890   1.0000 0.25000  0.25000  0.70000  Biso   1.000  Cu
  Cu2891   1.0000 0.25000  0.20000  0.75000  Biso   1.000  Cu
  Cu2892   1.0000 0.20000  0.25000  0.75000  Biso   1.000  Cu
  Cu2893   1.0000 0.30000  0.20000  0.70000  Biso   1.000  Cu
  Cu2894   1.0000 0.35000  0.25000  0.70000  Biso   1.000  Cu
  Cu2895   1.0000 0.35000  0.20000  0.75000  Biso   1.000  Cu
  Cu2896   1.0000 0.30000  0.25000  0.75000  Biso   1.000  Cu
  Cu2897   1.0000 0.40000  0.20000  0.70000  Biso   1.000  Cu
  Cu2898   1.0000 0.45000  0.25000  0.70000  Biso   1.000  Cu
  Cu2899   1.0000 0.45000  0.20000  0.75000  Biso   1.000  Cu
  Cu2900   1.0000 0.40000  0.25000  0.75000  Biso   1.000  Cu
  Cu2901   1.0000 0.50000  0.20000  0.70000  Biso   1.000  Cu
  Cu2902   1.0000 0.55000  0.25000  0.70000  Biso   1.000  Cu
  Cu2903   1.0000 0.55000  0.20000  0.75000  Biso   1.000  Cu
  Cu2904   1.0000 0.50000  0.25000  0.75000  Biso   1.000  Cu
  Cu2905   1.0000 0.60000  0.20000  0.70000  Biso   1.000  Cu
  Cu2906   1.0000 0.65000  0.25000  0.70000  Biso   1.000  Cu
  Cu2907   1.0000 0.65000  0.20000  0.75000  Biso   1.000  Cu
  Cu2908   1.0000 0.60000  0.25000  0.75000  Biso   1.000  Cu
  Cu2909   1.0000 0.70000  0.20000  0.70000  Biso   1.000  Cu
  Cu2910   1.0000 0.75000  0.25000  0.70000  Biso   1.000  Cu
  Cu2911   1.0000 0.75000  0.20000  0.75000  Biso   1.000  Cu
  Cu2912   1.0000 0.70000  0.25000  0.75000  Biso   1.000  Cu
  Cu2913   1.0000 0.80000  0.20000  0.70000  Biso   1.000  Cu
  Cu2914   1.0000 0.85000  0.25000  0.70000  Biso   1.000  Cu
  Cu2915   1.0000 0.85000  0.20000  0.75000  Biso   1.000  Cu
  Cu2916   1.0000 0.80000  0.25000  0.75000  Biso   1.000  Cu
  Cu2917   1.0000 0.90000  0.20000  0.70000  Biso   1.000  Cu
  Cu2918   1.0000 0.95000  0.25000  0.70000  Biso   1.000  Cu
  Cu2919   1.0000 0.95000  0.20000  0.75000  Biso   1.000  Cu
  Cu2920   1.0000 0.90000  0.25000  0.75000  Biso   1.000  Cu
  Cu2921   1.0000 0.00000  0.30000  0.70000  Biso   1.000  Cu
  Cu2922   1.0000 0.05000  0.35000  0.70000  Biso   1.000  Cu
  Cu2923   1.0000 0.05000  0.30000  0.75000  Biso   1.000  Cu
  Cu2924   1.0000 0.00000  0.35000  0.75000  Biso   1.000  Cu
  Cu2925   1.0000 0.10000  0.30000  0.70000  Biso   1.000  Cu
  Cu2926   1.0000 0.15000  0.35000  0.70000  Biso   1.000  Cu
  Cu2927   1.0000 0.15000  0.30000  0.75000  Biso   1.000  Cu
  Cu2928   1.0000 0.10000  0.35000  0.75000  Biso   1.000  Cu
  Cu2929   1.0000 0.20000  0.30000  0.70000  Biso   1.000  Cu
  Cu2930   1.0000 0.25000  0.35000  0.70000  Biso   1.000  Cu
  Cu2931   1.0000 0.25000  0.30000  0.75000  Biso   1.000  Cu
  Cu2932   1.0000 0.20000  0.35000  0.75000  Biso   1.000  Cu
  Cu2933   1.0000 0.30000  0.30000  0.70000  Biso   1.000  Cu
  Cu2934   1.0000 0.35000  0.35000  0.70000  Biso   1.000  Cu
  Cu2935   1.0000 0.35000  0.30000  0.75000  Biso   1.000  Cu
  Cu2936   1.0000 0.30000  0.35000  0.75000  Biso   1.000  Cu
  Cu2937   1.0000 0.40000  0.30000  0.70000  Biso   1.000  Cu
  Cu2938   1.0000 0.45000  0.35000  0.70000  Biso   1.000  Cu
  Cu2939   1.0000 0.45000  0.30000  0.75000  Biso   1.000  Cu
  Cu2940   1.0000 0.40000  0.35000  0.75000  Biso   1.000  Cu
  Cu2941   1.0000 0.50000  0.30000  0.70000  Biso   1.000  Cu
  Cu2942   1.0000 0.55000  0.35000  0.70000  Biso   1.000  Cu
  Cu2943   1.0000 0.55000  0.30000  0.75000  Biso   1.000  Cu
  Cu2944   1.0000 0.50000  0.35000  0.75000  Biso   1.000  Cu
  Cu2945   1.0000 0.60000  0.30000  0.70000  Biso   1.000  Cu
  Cu2946   1.0000 0.65000  0.35000  0.70000  Biso   1.000  Cu
  Cu2947   1.0000 0.65000  0.30000  0.75000  Biso   1.000  Cu
  Cu2948   1.0000 0.60000  0.35000  0.75000  Biso   1.000  Cu
  Cu2949   1.0000 0.70000  0.30000  0.70000  Biso   1.000  Cu
  Cu2950   1.0000 0.75000  0.35000  0.70000  Biso   1.000  Cu
  Cu2951   1.0000 0.75000  0.30000  0.75000  Biso   1.000  Cu
  Cu2952   1.0000 0.70000  0.35000  0.75000  Biso   1.000  Cu
  Cu2953   1.0000 0.80000  0.30000  0.70000  Biso   1.000  Cu
  Cu2954   1.0000 0.85000  0.35000  0.70000  Biso   1.000  Cu
  Cu2955   1.0000 0.85000  0.30000  0.75000  Biso   1.000  Cu
  Cu2956   1.0000 0.80000  0.35000  0.75000  Biso   1.000  Cu
  Cu2957   1.0000 0.90000  0.30000  0.70000  Biso   1.000  Cu
  Cu2958   1.0000 0.95000  0.35000  0.70000  Biso   1.000  Cu
  Cu2959   1.0000 0.95000  0.30000  0.75000  Biso   1.000  Cu
  Cu2960   1.0000 0.90000  0.35000  0.75000  Biso   1.000  Cu
  Cu2961   1.0000 0.00000  0.40000  0.70000  Biso   1.000  Cu
  Cu2962   1.0000 0.05000  0.45000  0.70000  Biso   1.000  Cu
  Cu2963   1.0000 0.05000  0.40000  0.75000  Biso   1.000  Cu
  Cu2964   1.0000 0.00000  0.45000  0.75000  Biso   1.000  Cu
  Cu2965   1.0000 0.10000  0.40000  0.70000  Biso   1.000  Cu
  Cu2966   1.0000 0.15000  0.45000  0.70000  Biso   1.000  Cu
  Cu2967   1.0000 0.15000  0.40000  0.75000  Biso   1.000  Cu
  Cu2968   1.0000 0.10000  0.45000  0.75000  Biso   1.000  Cu
  Cu2969   1.0000 0.20000  0.40000  0.70000  Biso   1.000  Cu
  Cu2970   1.0000 0.25000  0.45000  0.70000  Biso   1.000  Cu
  Cu2971   1.0000 0.25000  0.40000  0.75000  Biso   1.000  Cu
  Cu2972   1.0000 0.20000  0.45000  0.75000  Biso   1.000  Cu
  Cu2973   1.0000 0.30000  0.40000  0.70000  Biso   1.000  Cu
  Cu2974   1.0000 0.35000  0.45000  0.70000  Biso   1.000  Cu
  Cu2975   1.0000 0.35000  0.40000  0.75000  Biso   1.000  Cu
  Cu2976   1.0000 0.30000  0.45000  0.75000  Biso   1.000  Cu
  Cu2977   1.0000 0.40000  0.40000  0.70000  Biso   1.000  Cu
  Cu2978   1.0000 0.45000  0.45000  0.70000  Biso   1.000  Cu
  Cu2979   1.0000 0.45000  0.40000  0.75000  Biso   1.000  Cu
  Cu2980   1.0000 0.40000  0.45000  0.75000  Biso   1.000  Cu
  Cu2981   1.0000 0.50000  0.40000  0.70000  Biso   1.000  Cu
  Cu2982   1.0000 0.55000  0.45000  0.70000  Biso   1.000  Cu
  Cu2983   1.0000 0.55000  0.40000  0.75000  Biso   1.000  Cu
  Cu2984   1.0000 0.50000  0.45000  0.75000  Biso   1.000  Cu
  Cu2985   1.0000 0.60000  0.40000  0.70000  Biso   1.000  Cu
  Cu2986   1.0000 0.65000  0.45000  0.70000  Biso   1.000  Cu
  Cu2987   1.0000 0.65000  0.40000  0.75000  Biso   1.000  Cu
  Cu2988   1.0000 0.60000  0.45000  0.75000  Biso   1.000  Cu
  Cu2989   1.0000 0.70000  0.40000  0.70000  Biso   1.000  Cu
  Cu2990   1.0000 0.75000  0.45000  0.70000  Biso   1.000  Cu
  Cu2991   1.0000 0.75000  0.40000  0.75000  Biso   1.000  Cu
  Cu2992   1.0000 0.70000  0.45000  0.75000  Biso   1.000  Cu
  Cu2993   1.0000 0.80000  0.40000  0.70000  Biso   1.000  Cu
  Cu2994   1.0000 0.85000  0.45000  0.70000  Biso   1.000  Cu
  Cu2995   1.0000 0.85000  0.40000  0.75000  Biso   1.000  Cu
  Cu2996   1.0000 0.80000  0.45000  0.75000  Biso   1.000  Cu
  Cu2997   1.0000 0.90000  0.40000  0.70000  Biso   1.000  Cu
  Cu2998   1.0000 0.95000  0.45000  0.70000  Biso   1.000  Cu
  Cu2999   1.0000 0.95000  0.40000  0.75000  Biso   1.000  Cu
  Cu3000   1.0000 0.90000  0.45000  0.75000  Biso   1.000  Cu
  Cu3001   1.0000 0.00000  0.50000  0.70000  Biso   1.000  Cu
  Cu3002   1.0000 0.05000  0.55000  0.70000  Biso   1.000  Cu
  Cu3003   1.0000 0.05000  0.50000  0.75000  Biso   1.000  Cu
  Cu3004   1.0000 0.00000  0.55000  0.75000  Biso   1.000  Cu
  Cu3005   1.0000 0.10000  0.50000  0.70000  Biso   1.000  Cu
  Cu3006   1.0000 0.15000  0.55000  0.70000  Biso   1.000  Cu
  Cu3007   1.0000 0.15000  0.50000  0.75000  Biso   1.000  Cu
  Cu3008   1.0000 0.10000  0.55000  0.75000  Biso   1.000  Cu
  Cu3009   1.0000 0.20000  0.50000  0.70000  Biso   1.000  Cu
  Cu3010   1.0000 0.25000  0.55000  0.70000  Biso   1.000  Cu
  Cu3011   1.0000 0.25000  0.50000  0.75000  Biso   1.000  Cu
  Cu3012   1.0000 0.20000  0.55000  0.75000  Biso   1.000  Cu
  Cu3013   1.0000 0.30000  0.50000  0.70000  Biso   1.000  Cu
  Cu3014   1.0000 0.35000  0.55000  0.70000  Biso   1.000  Cu
  Cu3015   1.0000 0.35000  0.50000  0.75000  Biso   1.000  Cu
  Cu3016   1.0000 0.30000  0.55000  0.75000  Biso   1.000  Cu
  Cu3017   1.0000 0.40000  0.50000  0.70000  Biso   1.000  Cu
  Cu3018   1.0000 0.45000  0.55000  0.70000  Biso   1.000  Cu
  Cu3019   1.0000 0.45000  0.50000  0.75000  Biso   1.000  Cu
  Cu3020   1.0000 0.40000  0.55000  0.75000  Biso   1.000  Cu
  Cu3021   1.0000 0.50000  0.50000  0.70000  Biso   1.000  Cu
  Cu3022   1.0000 0.55000  0.55000  0.70000  Biso   1.000  Cu
  Cu3023   1.0000 0.55000  0.50000  0.75000  Biso   1.000  Cu
  Cu3024   1.0000 0.50000  0.55000  0.75000  Biso   1.000  Cu
  Cu3025   1.0000 0.60000  0.50000  0.70000  Biso   1.000  Cu
  Cu3026   1.0000 0.65000  0.55000  0.70000  Biso   1.000  Cu
  Cu3027   1.0000 0.65000  0.50000  0.75000  Biso   1.000  Cu
  Cu3028   1.0000 0.60000  0.55000  0.75000  Biso   1.000  Cu
  Cu3029   1.0000 0.70000  0.50000  0.70000  Biso   1.000  Cu
  Cu3030   1.0000 0.75000  0.55000  0.70000  Biso   1.000  Cu
  Cu3031   1.0000 0.75000  0.50000  0.75000  Biso   1.000  Cu
  Cu3032   1.0000 0.70000  0.55000  0.75000  Biso   1.000  Cu
  Cu3033   1.0000 0.80000  0.50000  0.70000  Biso   1.000  Cu
  Cu3034   1.0000 0.85000  0.55000  0.70000  Biso   1.000  Cu
  Cu3035   1.0000 0.85000  0.50000  0.75000  Biso   1.000  Cu
  Cu3036   1.0000 0.80000  0.55000  0.75000  Biso   1.000  Cu
  Cu3037   1.0000 0.90000  0.50000  0.70000  Biso   1.000  Cu
  Cu3038   1.0000 0.95000  0.55000  0.70000  Biso   1.000  Cu
  Cu3039   1.0000 0.95000  0.50000  0.75000  Biso   1.000  Cu
  Cu3040   1.0000 0.90000  0.55000  0.75000  Biso   1.000  Cu
  Cu3041   1.0000 0.00000  0.60000  0.70000  Biso   1.000  Cu
  Cu3042   1.0000 0.05000  0.65000  0.70000  Biso   1.000  Cu
  Cu3043   1.0000 0.05000  0.60000  0.75000  Biso   1.000  Cu
  Cu3044   1.0000 0.00000  0.65000  0.75000  Biso   1.000  Cu
  Cu3045   1.0000 0.10000  0.60000  0.70000  Biso   1.000  Cu
  Cu3046   1.0000 0.15000  0.65000  0.70000  Biso   1.000  Cu
  Cu3047   1.0000 0.15000  0.60000  0.75000  Biso   1.000  Cu
  Cu3048   1.0000 0.10000  0.65000  0.75000  Biso   1.000  Cu
  Cu3049   1.0000 0.20000  0.60000  0.70000  Biso   1.000  Cu
  Cu3050   1.0000 0.25000  0.65000  0.70000  Biso   1.000  Cu
  Cu3051   1.0000 0.25000  0.60000  0.75000  Biso   1.000  Cu
  Cu3052   1.0000 0.20000  0.65000  0.75000  Biso   1.000  Cu
  Cu3053   1.0000 0.30000  0.60000  0.70000  Biso   1.000  Cu
  Cu3054   1.0000 0.35000  0.65000  0.70000  Biso   1.000  Cu
  Cu3055   1.0000 0.35000  0.60000  0.75000  Biso   1.000  Cu
  Cu3056   1.0000 0.30000  0.65000  0.75000  Biso   1.000  Cu
  Cu3057   1.0000 0.40000  0.60000  0.70000  Biso   1.000  Cu
  Cu3058   1.0000 0.45000  0.65000  0.70000  Biso   1.000  Cu
  Cu3059   1.0000 0.45000  0.60000  0.75000  Biso   1.000  Cu
  Cu3060   1.0000 0.40000  0.65000  0.75000  Biso   1.000  Cu
  Cu3061   1.0000 0.50000  0.60000  0.70000  Biso   1.000  Cu
  Cu3062   1.0000 0.55000  0.65000  0.70000  Biso   1.000  Cu
  Cu3063   1.0000 0.55000  0.60000  0.75000  Biso   1.000  Cu
  Cu3064   1.0000 0.50000  0.65000  0.75000  Biso   1.000  Cu
  Cu3065   1.0000 0.60000  0.60000  0.70000  Biso   1.000  Cu
  Cu3066   1.0000 0.65000  0.65000  0.70000  Biso   1.000  Cu
  Cu3067   1.0000 0.65000  0.60000  0.75000  Biso   1.000  Cu
  Cu3068   1.0000 0.60000  0.65000  0.75000  Biso   1.000  Cu
  Cu3069   1.0000 0.70000  0.60000  0.70000  Biso   1.000  Cu
  Cu3070   1.0000 0.75000  0.65000  0.70000  Biso   1.000  Cu
  Cu3071   1.0000 0.75000  0.60000  0.75000  Biso   1.000  Cu
  Cu3072   1.0000 0.70000  0.65000  0.75000  Biso   1.000  Cu
  Cu3073   1.0000 0.80000  0.60000  0.70000  Biso   1.000  Cu
  Cu3074   1.0000 0.85000  0.65000  0.70000  Biso   1.000  Cu
  Cu3075   1.0000 0.85000  0.60000  0.75000  Biso   1.000  Cu
  Cu3076   1.0000 0.80000  0.65000  0.75000  Biso   1.000  Cu
  Cu3077   1.0000 0.90000  0.60000  0.70000  Biso   1.000  Cu
  Cu3078   1.0000 0.95000  0.65000  0.70000  Biso   1.000  Cu
  Cu3079   1.0000 0.95000  0.60000  0.75000  Biso   1.000  Cu
  Cu3080   1.0000 0.90000  0.65000  0.75000  Biso   1.000  Cu
  Cu3081   1.0000 0.00000  0.70000  0.70000  Biso   1.000  Cu
  Cu3082   1.0000 0.05000  0.75000  0.70000  Biso   1.000  Cu
  Cu3083   1.0000 0.05000  0.70000  0.75000  Biso   1.000  Cu
  Cu3084   1.0000 0.00000  0.75000  0.75000  Biso   1.000  Cu
  Cu3085   1.0000 0.10000  0.70000  0.70000  Biso   1.000  Cu
  Cu3086   1.0000 0.15000  0.75000  0.70000  Biso   1.000  Cu
  Cu3087   1.0000 0.15000  0.70000  0.75000  Biso   1.000  Cu
  Cu3088   1.0000 0.10000  0.75000  0.75000  Biso   1.000  Cu
  Cu3089   1.0000 0.20000  0.70000  0.70000  Biso   1.000  Cu
  Cu3090   1.0000 0.25000  0.75000  0.70000  Biso   1.000  Cu
  Cu3091   1.0000 0.25000  0.70000  0.75000  Biso   1.000  Cu
  Cu3092   1.0000 0.20000  0.75000  0.75000  Biso   1.000  Cu
  Cu3093   1.0000 0.30000  0.70000  0.70000  Biso   1.000  Cu
  Cu3094   1.0000 0.35000  0.75000  0.70000  Biso   1.000  Cu
  Cu3095   1.0000 0.35000  0.70000  0.75000  Biso   1.000  Cu
  Cu3096   1.0000 0.30000  0.75000  0.75000  Biso   1.000  Cu
  Cu3097   1.0000 0.40000  0.70000  0.70000  Biso   1.000  Cu
  Cu3098   1.0000 0.45000  0.75000  0.70000  Biso   1.000  Cu
  Cu3099   1.0000 0.45000  0.70000  0.75000  Biso   1.000  Cu
  Cu3100   1.0000 0.40000  0.75000  0.75000  Biso   1.000  Cu
  Cu3101   1.0000 0.50000  0.70000  0.70000  Biso   1.000  Cu
  Cu3102   1.0000 0.55000  0.75000  0.70000  Biso   1.000  Cu
  Cu3103   1.0000 0.55000  0.70000  0.75000  Biso   1.000  Cu
  Cu3104   1.0000 0.50000  0.75000  0.75000  Biso   1.000  Cu
  Cu3105   1.0000 0.60000  0.70000  0.70000  Biso   1.000  Cu
  Cu3106   1.0000 0.65000  0.75000  0.70000  Biso   1.000  Cu
  Cu3107   1.0000 0.65000  0.70000  0.75000  Biso   1.000  Cu
  Cu3108   1.0000 0.60000  0.75000  0.75000  Biso   1.000  Cu
  Cu3109   1.0000 0.70000  0.70000  0.70000  Biso   1.000  Cu
  Cu3110   1.0000 0.75000  0.75000  0.70000  Biso   1.000  Cu
  Cu3111   1.0000 0.75000  0.70000  0.75000  Biso   1.000  Cu
  Cu3112   1.0000 0.70000  0.75000  0.75000  Biso   1.000  Cu
  Cu3113   1.0000 0.80000  0.70000  0.70000  Biso   1.000  Cu
  Cu3114   1.0000 0.85000  0.75000  0.70000  Biso   1.000  Cu
  Cu3115   1.0000 0.85000  0.70000  0.75000  Biso   1.000  Cu
  Cu3116   1.0000 0.80000  0.75000  0.75000  Biso   1.000  Cu
  Cu3117   1.0000 0.90000  0.70000  0.70000  Biso   1.000  Cu
  Cu3118   1.0000 0.95000  0.75000  0.70000  Biso   1.000  Cu
  Cu3119   1.0000 0.95000  0.70000  0.75000  Biso   1.000  Cu
  Cu3120   1.0000 0.90000  0.75000  0.75000  Biso   1.000  Cu
  Cu3121   1.0000 0.00000  0.80000  0.70000  Biso   1.000  Cu
  Cu3122   1.0000 0.05000  0.85000  0.70000  Biso   1.000  Cu
  Cu3123   1.0000 0.05000  0.80000  0.75000  Biso   1.000  Cu
  Cu3124   1.0000 0.00000  0.85000  0.75000  Biso   1.000  Cu
  Cu3125   1.0000 0.10000  0.80000  0.70000  Biso   1.000  Cu
  Cu3126   1.0000 0.15000  0.85000  0.70000  Biso   1.000  Cu
  Cu3127   1.0000 0.15000  0.80000  0.75000  Biso   1.000  Cu
  Cu3128   1.0000 0.10000  0.85000  0.75000  Biso   1.000  Cu
  Cu3129   1.0000 0.20000  0.80000  0.70000  Biso   1.000  Cu
  Cu3130   1.0000 0.25000  0.85000  0.70000  Biso   1.000  Cu
  Cu3131   1.0000 0.25000  0.80000  0.75000  Biso   1.000  Cu
  Cu3132   1.0000 0.20000  0.85000  0.75000  Biso   1.000  Cu
  Cu3133   1.0000 0.30000  0.80000  0.70000  Biso   1.000  Cu
  Cu3134   1.0000 0.35000  0.85000  0.70000  Biso   1.000  Cu
  Cu3135   1.0000 0.35000  0.80000  0.75000  Biso   1.000  Cu
  Cu3136   1.0000 0.30000  0.85000  0.75000  Biso   1.000  Cu
  Cu3137   1.0000 0.40000  0.80000  0.70000  Biso   1.000  Cu
  Cu3138   1.0000 0.45000  0.85000  0.70000  Biso   1.000  Cu
  Cu3139   1.0000 0.45000  0.80000  0.75000  Biso   1.000  Cu
  Cu3140   1.0000 0.40000  0.85000  0.75000  Biso   1.000  Cu
  Cu3141   1.0000 0.50000  0.80000  0.70000  Biso   1.000  Cu
  Cu3142   1.0000 0.55000  0.85000  0.70000  Biso   1.000  Cu
  Cu3143   1.0000 0.55000  0.80000  0.75000  Biso   1.000  Cu
  Cu3144   1.0000 0.50000  0.85000  0.75000  Biso   1.000  Cu
  Cu3145   1.0000 0.60000  0.80000  0.70000  Biso   1.000  Cu
  Cu3146   1.0000 0.65000  0.85000  0.70000  Biso   1.000  Cu
  Cu3147   1.0000 0.65000  0.80000  0.75000  Biso   1.000  Cu
  Cu3148   1.0000 0.60000  0.85000  0.75000  Biso   1.000  Cu
  Cu3149   1.0000 0.70000  0.80000  0.70000  Biso   1.000  Cu
  Cu3150   1.0000 0.75000  0.85000  0.70000  Biso   1.000  Cu
  Cu3151   1.0000 0.75000  0.80000  0.75000  Biso   1.000  Cu
  Cu3152   1.0000 0.70000  0.85000  0.75000  Biso   1.000  Cu
  Cu3153   1.0000 0.80000  0.80000  0.70000  Biso   1.000  Cu
  Cu3154   1.0000 0.85000  0.85000  0.70000  Biso   1.000  Cu
  Cu3155   1.0000 0.85000  0.80000  0.75000  Biso   1.000  Cu
  Cu3156   1.0000 0.80000  0.85000  0.75000  Biso   1.000  Cu
  Cu3157   1.0000 0.90000  0.80000  0.70000  Biso   1.000  Cu
  Cu3158   1.0000 0.95000  0.85000  0.70000  Biso   1.000  Cu
  Cu3159   1.0000 0.95000  0.80000  0.75000  Biso   1.000  Cu
  Cu3160   1.0000 0.90000  0.85000  0.75000  Biso   1.000  Cu
  Cu3161   1.0000 0.00000  0.90000  0.70000  Biso   1.000  Cu
  Cu3162   1.0000 0.05000  0.95000  0.70000  Biso   1.000  Cu
  Cu3163   1.0000 0.05000  0.90000  0.75000  Biso   1.000  Cu
  Cu3164   1.0000 0.00000  0.95000  0.75000  Biso   1.000  Cu
  Cu3165   1.0000 0.10000  0.90000  0.70000  Biso   1.000  Cu
  Cu3166   1.0000 0.15000  0.95000  0.70000  Biso   1.000  Cu
  Cu3167   1.0000 0.15000  0.90000  0.75000  Biso   1.000  Cu
  Cu3168   1.0000 0.10000  0.95000  0.75000  Biso   1.000  Cu
  Cu3169   1.0000 0.20000  0.90000  0.70000  Biso   1.000  Cu
  Cu3170   1.0000 0.25000  0.95000  0.70000  Biso   1.000  Cu
  Cu3171   1.0000 0.25000  0.90000  0.75000  Biso   1.000  Cu
  Cu3172   1.0000 0.20000  0.95000  0.75000  Biso   1.000  Cu
  Cu3173   1.0000 0.30000  0.90000  0.70000  Biso   1.000  Cu
  Cu3174   1.0000 0.35000  0.95000  0.70000  Biso   1.000  Cu
  Cu3175   1.0000 0.35000  0.90000  0.75000  Biso   1.000  Cu
  Cu3176   1.0000 0.30000  0.95000  0.75000  Biso   1.000  Cu
  Cu3177   1.0000 0.40000  0.90000  0.70000  Biso   1.000  Cu
  Cu3178   1.0000 0.45000  0.95000  0.70000  Biso   1.000  Cu
  Cu3179   1.0000 0.45000  0.90000  0.75000  Biso   1.000  Cu
  Cu3180   1.0000 0.40000  0.95000  0.75000  Biso   1.000  Cu
  Cu3181   1.0000 0.50000  0.90000  0.70000  Biso   1.000  Cu
  Cu3182   1.0000 0.55000  0.95000  0.70000  Biso   1.000  Cu
  Cu3183   1.0000 0.55000  0.90000  0.75000  Biso   1.000  Cu
  Cu3184   1.0000 0.50000  0.95000  0.75000  Biso   1.000  Cu
  Cu3185   1.0000 0.60000  0.90000  0.70000  Biso   1.000  Cu
  Cu3186   1.0000 0.65000  0.95000  0.70000  Biso   1.000  Cu
  Cu3187   1.0000 0.65000  0.90000  0.75000  Biso   1.000  Cu
  Cu3188   1.0000 0.60000  0.95000  0.75000  Biso   1.000  Cu
  Cu3189   1.0000 0.70000  0.90000  0.70000  Biso   1.000  Cu
  Cu3190   1.0000 0.75000  0.95000  0.70000  Biso   1.000  Cu
  Cu3191   1.0000 0.75000  0.90000  0.75000  Biso   1.000  Cu
  Cu3192   1.0000 0.70000  0.95000  0.75000  Biso   1.000  Cu
  Cu3193   1.0000 0.80000  0.90000  0.70000  Biso   1.000  Cu
  Cu3194   1.0000 0.85000  0.95000  0.70000  Biso   1.000  Cu
  Cu3195   1.0000 0.85000  0.90000  0.75000  Biso   1.000  Cu
  Cu3196   1.0000 0.80000  0.95000  0.75000  Biso   1.000  Cu
  Cu3197   1.0000 0.90000  0.90000  0.70000  Biso   1.000  Cu
  Cu3198   1.0000 0.95000  0.95000  0.70000  Biso   1.000  Cu
  Cu3199   1.0000 0.95000  0.90000  0.75000  Biso   1.000  Cu
  Cu3200   1.0000 0.90000  0.95000  0.75000  Biso   1.000  Cu
  Cu3201   1.0000 0.00000  0.00000  0.80000  Biso   1.000  Cu
  Cu3202   1.0000 0.05000  0.05000  0.80000  Biso   1.000  Cu
  Cu3203   1.0000 0.05000  0.00000  0.85000  Biso   1.000  Cu
  Cu3204   1.0000 0.00000  0.05000  0.85000  Biso   1.000  Cu
  Cu3205   1.0000 0.10000  0.00000  0.80000  Biso   1.000  Cu
  Cu3206   1.0000 0.15000  0.05000  0.80000  Biso   1.000  Cu
  Cu3207   1.0000 0.15000  0.00000  0.85000  Biso   1.000  Cu
  Cu3208   1.0000 0.10000  0.05000  0.85000  Biso   1.000  Cu
  Cu3209   1.0000 0.20000  0.00000  0.80000  Biso   1.000  Cu
  Cu3210   1.0000 0.25000  0.05000  0.80000  Biso   1.000  Cu
  Cu3211   1.0000 0.25000  0.00000  0.85000  Biso   1.000  Cu
  Cu3212   1.0000 0.20000  0.05000  0.85000  Biso   1.000  Cu
  Cu3213   1.0000 0.30000  0.00000  0.80000  Biso   1.000  Cu
  Cu3214   1.0000 0.35000  0.05000  0.80000  Biso   1.000  Cu
  Cu3215   1.0000 0.35000  0.00000  0.85000  Biso   1.000  Cu
  Cu3216   1.0000 0.30000  0.05000  0.85000  Biso   1.000  Cu
  Cu3217   1.0000 0.40000  0.00000  0.80000  Biso   1.000  Cu
  Cu3218   1.0000 0.45000  0.05000  0.80000  Biso   1.000  Cu
  Cu3219   1.0000 0.45000  0.00000  0.85000  Biso   1.000  Cu
  Cu3220   1.0000 0.40000  0.05000  0.85000  Biso   1.000  Cu
  Cu3221   1.0000 0.50000  0.00000  0.80000  Biso   1.000  Cu
  Cu3222   1.0000 0.55000  0.05000  0.80000  Biso   1.000  Cu
  Cu3223   1.0000 0.55000  0.00000  0.85000  Biso   1.000  Cu
  Cu3224   1.0000 0.50000  0.05000  0.85000  Biso   1.000  Cu
  Cu3225   1.0000 0.60000  0.00000  0.80000  Biso   1.000  Cu
  Cu3226   1.0000 0.65000  0.05000  0.80000  Biso   1.000  Cu
  Cu3227   1.0000 0.65000  0.00000  0.85000  Biso   1.000  Cu
  Cu3228   1.0000 0.60000  0.05000  0.85000  Biso   1.000  Cu
  Cu3229   1.0000 0.70000  0.00000  0.80000  Biso   1.000  Cu
  Cu3230   1.0000 0.75000  0.05000  0.80000  Biso   1.000  Cu
  Cu3231   1.0000 0.75000  0.00000  0.85000  Biso   1.000  Cu
  Cu3232   1.0000 0.70000  0.05000  0.85000  Biso   1.000  Cu
  Cu3233   1.0000 0.80000  0.00000  0.80000  Biso   1.000  Cu
  Cu3234   1.0000 0.85000  0.05000  0.80000  Biso   1.000  Cu
  Cu3235   1.0000 0.85000  0.00000  0.85000  Biso   1.000  Cu
  Cu3236   1.0000 0.80000  0.05000  0.85000  Biso   1.000  Cu
  Cu3237   1.0000 0.90000  0.00000  0.80000  Biso   1.000  Cu
  Cu3238   1.0000 0.95000  0.05000  0.80000  Biso   1.000  Cu
  Cu3239   1.0000 0.95000  0.00000  0.85000  Biso   1.000  Cu
  Cu3240   1.0000 0.90000  0.05000  0.85000  Biso   1.000  Cu
  Cu3241   1.0000 0.00000  0.10000  0.80000  Biso   1.000  Cu
  Cu3242   1.0000 0.05000  0.15000  0.80000  Biso   1.000  Cu
  Cu3243   1.0000 0.05000  0.10000  0.85000  Biso   1.000  Cu
  Cu3244   1.0000 0.00000  0.15000  0.85000  Biso   1.000  Cu
  Cu3245   1.0000 0.10000  0.10000  0.80000  Biso   1.000  Cu
  Cu3246   1.0000 0.15000  0.15000  0.80000  Biso   1.000  Cu
  Cu3247   1.0000 0.15000  0.10000  0.85000  Biso   1.000  Cu
  Cu3248   1.0000 0.10000  0.15000  0.85000  Biso   1.000  Cu
  Cu3249   1.0000 0.20000  0.10000  0.80000  Biso   1.000  Cu
  Cu3250   1.0000 0.25000  0.15000  0.80000  Biso   1.000  Cu
  Cu3251   1.0000 0.25000  0.10000  0.85000  Biso   1.000  Cu
  Cu3252   1.0000 0.20000  0.15000  0.85000  Biso   1.000  Cu
  Cu3253   1.0000 0.30000  0.10000  0.80000  Biso   1.000  Cu
  Cu3254   1.0000 0.35000  0.15000  0.80000  Biso   1.000  Cu
  Cu3255   1.0000 0.35000  0.10000  0.85000  Biso   1.000  Cu
  Cu3256   1.0000 0.30000  0.15000  0.85000  Biso   1.000  Cu
  Cu3257   1.0000 0.40000  0.10000  0.80000  Biso   1.000  Cu
  Cu3258   1.0000 0.45000  0.15000  0.80000  Biso   1.000  Cu
  Cu3259   1.0000 0.45000  0.10000  0.85000  Biso   1.000  Cu
  Cu3260   1.0000 0.40000  0.15000  0.85000  Biso   1.000  Cu
  Cu3261   1.0000 0.50000  0.10000  0.80000  Biso   1.000  Cu
  Cu3262   1.0000 0.55000  0.15000  0.80000  Biso   1.000  Cu
  Cu3263   1.0000 0.55000  0.10000  0.85000  Biso   1.000  Cu
  Cu3264   1.0000 0.50000  0.15000  0.85000  Biso   1.000  Cu
  Cu3265   1.0000 0.60000  0.10000  0.80000  Biso   1.000  Cu
  Cu3266   1.0000 0.65000  0.15000  0.80000  Biso   1.000  Cu
  Cu3267   1.0000 0.65000  0.10000  0.85000  Biso   1.000  Cu
  Cu3268   1.0000 0.60000  0.15000  0.85000  Biso   1.000  Cu
  Cu3269   1.0000 0.70000  0.10000  0.80000  Biso   1.000  Cu
  Cu3270   1.0000 0.75000  0.15000  0.80000  Biso   1.000  Cu
  Cu3271   1.0000 0.75000  0.10000  0.85000  Biso   1.000  Cu
  Cu3272   1.0000 0.70000  0.15000  0.85000  Biso   1.000  Cu
  Cu3273   1.0000 0.80000  0.10000  0.80000  Biso   1.000  Cu
  Cu3274   1.0000 0.85000  0.15000  0.80000  Biso   1.000  Cu
  Cu3275   1.0000 0.85000  0.10000  0.85000  Biso   1.000  Cu
  Cu3276   1.0000 0.80000  0.15000  0.85000  Biso   1.000  Cu
  Cu3277   1.0000 0.90000  0.10000  0.80000  Biso   1.000  Cu
  Cu3278   1.0000 0.95000  0.15000  0.80000  Biso   1.000  Cu
  Cu3279   1.0000 0.95000  0.10000  0.85000  Biso   1.000  Cu
  Cu3280   1.0000 0.90000  0.15000  0.85000  Biso   1.000  Cu
  Cu3281   1.0000 0.00000  0.20000  0.80000  Biso   1.000  Cu
  Cu3282   1.0000 0.05000  0.25000  0.80000  Biso   1.000  Cu
  Cu3283   1.0000 0.05000  0.20000  0.85000  Biso   1.000  Cu
  Cu3284   1.0000 0.00000  0.25000  0.85000  Biso   1.000  Cu
  Cu3285   1.0000 0.10000  0.20000  0.80000  Biso   1.000  Cu
  Cu3286   1.0000 0.15000  0.25000  0.80000  Biso   1.000  Cu
  Cu3287   1.0000 0.15000  0.20000  0.85000  Biso   1.000  Cu
  Cu3288   1.0000 0.10000  0.25000  0.85000  Biso   1.000  Cu
  Cu3289   1.0000 0.20000  0.20000  0.80000  Biso   1.000  Cu
  Cu3290   1.0000 0.25000  0.25000  0.80000  Biso   1.000  Cu
  Cu3291   1.0000 0.25000  0.20000  0.85000  Biso   1.000  Cu
  Cu3292   1.0000 0.20000  0.25000  0.85000  Biso   1.000  Cu
  Cu3293   1.0000 0.30000  0.20000  0.80000  Biso   1.000  Cu
  Cu3294   1.0000 0.35000  0.25000  0.80000  Biso   1.000  Cu
  Cu3295   1.0000 0.35000  0.20000  0.85000  Biso   1.000  Cu
  Cu3296   1.0000 0.30000  0.25000  0.85000  Biso   1.000  Cu
  Cu3297   1.0000 0.40000  0.20000  0.80000  Biso   1.000  Cu
  Cu3298   1.0000 0.45000  0.25000  0.80000  Biso   1.000  Cu
  Cu3299   1.0000 0.45000  0.20000  0.85000  Biso   1.000  Cu
  Cu3300   1.0000 0.40000  0.25000  0.85000  Biso   1.000  Cu
  Cu3301   1.0000 0.50000  0.20000  0.80000  Biso   1.000  Cu
  Cu3302   1.0000 0.55000  0.25000  0.80000  Biso   1.000  Cu
  Cu3303   1.0000 0.55000  0.20000  0.85000  Biso   1.000  Cu
  Cu3304   1.0000 0.50000  0.25000  0.85000  Biso   1.000  Cu
  Cu3305   1.0000 0.60000  0.20000  0.80000  Biso   1.000  Cu
  Cu3306   1.0000 0.65000  0.25000  0.80000  Biso   1.000  Cu
  Cu3307   1.0000 0.65000  0.20000  0.85000  Biso   1.000  Cu
  Cu3308   1.0000 0.60000  0.25000  0.85000  Biso   1.000  Cu
  Cu3309   1.0000 0.70000  0.20000  0.80000  Biso   1.000  Cu
  Cu3310   1.0000 0.75000  0.25000  0.80000  Biso   1.000  Cu
  Cu3311   1.0000 0.75000  0.20000  0.85000  Biso   1.000  Cu
  Cu3312   1.0000 0.70000  0.25000  0.85000  Biso   1.000  Cu
  Cu3313   1.0000 0.80000  0.20000  0.80000  Biso   1.000  Cu
  Cu3314   1.0000 0.85000  0.25000  0.80000  Biso   1.000  Cu
  Cu3315   1.0000 0.85000  0.20000  0.85000  Biso   1.000  Cu
  Cu3316   1.0000 0.80000  0.25000  0.85000  Biso   1.000  Cu
  Cu3317   1.0000 0.90000  0.20000  0.80000  Biso   1.000  Cu
  Cu3318   1.0000 0.95000  0.25000  0.80000  Biso   1.000  Cu
  Cu3319   1.0000 0.95000  0.20000  0.85000  Biso   1.000  Cu
  Cu3320   1.0000 0.90000  0.25000  0.85000  Biso   1.000  Cu
  Cu3321   1.0000 0.00000  0.30000  0.80000  Biso   1.000  Cu
  Cu3322   1.0000 0.05000  0.35000  0.80000  Biso   1.000  Cu
  Cu3323   1.0000 0.05000  0.30000  0.85000  Biso   1.000  Cu
  Cu3324   1.0000 0.00000  0.35000  0.85000  Biso   1.000  Cu
  Cu3325   1.0000 0.10000  0.30000  0.80000  Biso   1.000  Cu
  Cu3326   1.0000 0.15000  0.35000  0.80000  Biso   1.000  Cu
  Cu3327   1.0000 0.15000  0.30000  0.85000  Biso   1.000  Cu
  Cu3328   1.0000 0.10000  0.35000  0.85000  Biso   1.000  Cu
  Cu3329   1.0000 0.20000  0.30000  0.80000  Biso   1.000  Cu
  Cu3330   1.0000 0.25000  0.35000  0.80000  Biso   1.000  Cu
  Cu3331   1.0000 0.25000  0.30000  0.85000  Biso   1.000  Cu
  Cu3332   1.0000 0.20000  0.35000  0.85000  Biso   1.000  Cu
  Cu3333   1.0000 0.30000  0.30000  0.80000  Biso   1.000  Cu
  Cu3334   1.0000 0.35000  0.35000  0.80000  Biso   1.000  Cu
  Cu3335   1.0000 0.35000  0.30000  0.85000  Biso   1.000  Cu
  Cu3336   1.0000 0.30000  0.35000  0.85000  Biso   1.000  Cu
  Cu3337   1.0000 0.40000  0.30000  0.80000  Biso   1.000  Cu
  Cu3338   1.0000 0.45000  0.35000  0.80000  Biso   1.000  Cu
  Cu3339   1.0000 0.45000  0.30000  0.85000  Biso   1.000  Cu
  Cu3340   1.0000 0.40000  0.35000  0.85000  Biso   1.000  Cu
  Cu3341   1.0000 0.50000  0.30000  0.80000  Biso   1.000  Cu
  Cu3342   1.0000 0.55000  0.35000  0.80000  Biso   1.000  Cu
  Cu3343   1.0000 0.55000  0.30000  0.85000  Biso   1.000  Cu
  Cu3344   1.0000 0.50000  0.35000  0.85000  Biso   1.000  Cu
  Cu3345   1.0000 0.60000  0.30000  0.80000  Biso   1.000  Cu
  Cu3346   1.0000 0.65000  0.35000  0.80000  Biso   1.000  Cu
  Cu3347   1.0000 0.65000  0.30000  0.85000  Biso   1.000  Cu
  Cu3348   1.0000 0.60000  0.35000  0.85000  Biso   1.000  Cu
  Cu3349   1.0000 0.70000  0.30000  0.80000  Biso   1.000  Cu
  Cu3350   1.0000 0.75000  0.35000  0.80000  Biso   1.000  Cu
  Cu3351   1.0000 0.75000  0.30000  0.85000  Biso   1.000  Cu
  Cu3352   1.0000 0.70000  0.35000  0.85000  Biso   1.000  Cu
  Cu3353   1.0000 0.80000  0.30000  0.80000  Biso   1.000  Cu
  Cu3354   1.0000 0.85000  0.35000  0.80000  Biso   1.000  Cu
  Cu3355   1.0000 0.85000  0.30000  0.85000  Biso   1.000  Cu
  Cu3356   1.0000 0.80000  0.35000  0.85000  Biso   1.000  Cu
  Cu3357   1.0000 0.90000  0.30000  0.80000  Biso   1.000  Cu
  Cu3358   1.0000 0.95000  0.35000  0.80000  Biso   1.000  Cu
  Cu3359   1.0000 0.95000  0.30000  0.85000  Biso   1.000  Cu
  Cu3360   1.0000 0.90000  0.35000  0.85000  Biso   1.000  Cu
  Cu3361   1.0000 0.00000  0.40000  0.80000  Biso   1.000  Cu
  Cu3362   1.0000 0.05000  0.45000  0.80000  Biso   1.000  Cu
  Cu3363   1.0000 0.05000  0.40000  0.85000  Biso   1.000  Cu
  Cu3364   1.0000 0.00000  0.45000  0.85000  Biso   1.000  Cu
  Cu3365   1.0000 0.10000  0.40000  0.80000  Biso   1.000  Cu
  Cu3366   1.0000 0.15000  0.45000  0.80000  Biso   1.000  Cu
  Cu3367   1.0000 0.15000  0.40000  0.85000  Biso   1.000  Cu
  Cu3368   1.0000 0.10000  0.45000  0.85000  Biso   1.000  Cu
  Cu3369   1.0000 0.20000  0.40000  0.80000  Biso   1.000  Cu
  Cu3370   1.0000 0.25000  0.45000  0.80000  Biso   1.000  Cu
  Cu3371   1.0000 0.25000  0.40000  0.85000  Biso   1.000  Cu
  Cu3372   1.0000 0.20000  0.45000  0.85000  Biso   1.000  Cu
  Cu3373   1.0000 0.30000  0.40000  0.80000  Biso   1.000  Cu
  Cu3374   1.0000 0.35000  0.45000  0.80000  Biso   1.000  Cu
  Cu3375   1.0000 0.35000  0.40000  0.85000  Biso   1.000  Cu
  Cu3376   1.0000 0.30000  0.45000  0.85000  Biso   1.000  Cu
  Cu3377   1.0000 0.40000  0.40000  0.80000  Biso   1.000  Cu
  Cu3378   1.0000 0.45000  0.45000  0.80000  Biso   1.000  Cu
  Cu3379   1.0000 0.45000  0.40000  0.85000  Biso   1.000  Cu
  Cu3380   1.0000 0.40000  0.45000  0.85000  Biso   1.000  Cu
  Cu3381   1.0000 0.50000  0.40000  0.80000  Biso   1.000  Cu
  Cu3382   1.0000 0.55000  0.45000  0.80000  Biso   1.000  Cu
  Cu3383   1.0000 0.55000  0.40000  0.85000  Biso   1.000  Cu
  Cu3384   1.0000 0.50000  0.45000  0.85000  Biso   1.000  Cu
  Cu3385   1.0000 0.60000  0.40000  0.80000  Biso   1.000  Cu
  Cu3386   1.0000 0.65000  0.45000  0.80000  Biso   1.000  Cu
  Cu3387   1.0000 0.65000  0.40000  0.85000  Biso   1.000  Cu
  Cu3388   1.0000 0.60000  0.45000  0.85000  Biso   1.000  Cu
  Cu3389   1.0000 0.70000  0.40000  0.80000  Biso   1.000  Cu
  Cu3390   1.0000 0.75000  0.45000  0.80000  Biso   1.000  Cu
  Cu3391   1.0000 0.75000  0.40000  0.85000  Biso   1.000  Cu
  Cu3392   1.0000 0.70000  0.45000  0.85000  Biso   1.000  Cu
  Cu3393   1.0000 0.80000  0.40000  0.80000  Biso   1.000  Cu
  Cu3394   1.0000 0.85000  0.45000  0.80000  Biso   1.000  Cu
  Cu3395   1.0000 0.85000  0.40000  0.85000  Biso   1.000  Cu
  Cu3396   1.0000 0.80000  0.45000  0.85000  Biso   1.000  Cu
  Cu3397   1.0000 0.90000  0.40000  0.80000  Biso   1.000  Cu
  Cu3398   1.0000 0.95000  0.45000  0.80000  Biso   1.000  Cu
  Cu3399   1.0000 0.95000  0.40000  0.85000  Biso   1.000  Cu
  Cu3400   1.0000 0.90000  0.45000  0.85000  Biso   1.000  Cu
  Cu3401   1.0000 0.00000  0.50000  0.80000  Biso   1.000  Cu
  Cu3402   1.0000 0.05000  0.55000  0.80000  Biso   1.000  Cu
  Cu3403   1.0000 0.05000  0.50000  0.85000  Biso   1.000  Cu
  Cu3404   1.0000 0.00000  0.55000  0.85000  Biso   1.000  Cu
  Cu3405   1.0000 0.10000  0.50000  0.80000  Biso   1.000  Cu
  Cu3406   1.0000 0.15000  0.55000  0.80000  Biso   1.000  Cu
  Cu3407   1.0000 0.15000  0.50000  0.85000  Biso   1.000  Cu
  Cu3408   1.0000 0.10000  0.55000  0.85000  Biso   1.000  Cu
  Cu3409   1.0000 0.20000  0.50000  0.80000  Biso   1.000  Cu
  Cu3410   1.0000 0.25000  0.55000  0.80000  Biso   1.000  Cu
  Cu3411   1.0000 0.25000  0.50000  0.85000  Biso   1.000  Cu
  Cu3412   1.0000 0.20000  0.55000  0.85000  Biso   1.000  Cu
  Cu3413   1.0000 0.30000  0.50000  0.80000  Biso   1.000  Cu
  Cu3414   1.0000 0.35000  0.55000  0.80000  Biso   1.000  Cu
  Cu3415   1.0000 0.35000  0.50000  0.85000  Biso   1.000  Cu
  Cu3416   1.0000 0.30000  0.55000  0.85000  Biso   1.000  Cu
  Cu3417   1.0000 0.40000  0.50000  0.80000  Biso   1.000  Cu
  Cu3418   1.0000 0.45000  0.55000  0.80000  Biso   1.000  Cu
  Cu3419   1.0000 0.45000  0.50000  0.85000  Biso   1.000  Cu
  Cu3420   1.0000 0.40000  0.55000  0.85000  Biso   1.000  Cu
  Cu3421   1.0000 0.50000  0.50000  0.80000  Biso   1.000  Cu
  Cu3422   1.0000 0.55000  0.55000  0.80000  Biso   1.000  Cu
  Cu3423   1.0000 0.55000  0.50000  0.85000  Biso   1.000  Cu
  Cu3424   1.0000 0.50000  0.55000  0.85000  Biso   1.000  Cu
  Cu3425   1.0000 0.60000  0.50000  0.80000  Biso   1.000  Cu
  Cu3426   1.0000 0.65000  0.55000  0.80000  Biso   1.000  Cu
  Cu3427   1.0000 0.65000  0.50000  0.85000  Biso   1.000  Cu
  Cu3428   1.0000 0.60000  0.55000  0.85000  Biso   1.000  Cu
  Cu3429   1.0000 0.70000  0.50000  0.80000  Biso   1.000  Cu
  Cu3430   1.0000 0.75000  0.55000  0.80000  Biso   1.000  Cu
  Cu3431   1.0000 0.75000  0.50000  0.85000  Biso   1.000  Cu
  Cu3432   1.0000 0.70000  0.55000  0.85000  Biso   1.000  Cu
  Cu3433   1.0000 0.80000  0.50000  0.80000  Biso   1.000  Cu
  Cu3434   1.0000 0.85000  0.55000  0.80000  Biso   1.000  Cu
  Cu3435   1.0000 0.85000  0.50000  0.85000  Biso   1.000  Cu
  Cu3436   1.0000 0.80000  0.55000  0.85000  Biso   1.000  Cu
  Cu3437   1.0000 0.90000  0.50000  0.80000  Biso   1.000  Cu
  Cu3438   1.0000 0.95000  0.55000  0.80000  Biso   1.000  Cu
  Cu3439   1.0000 0.95000  0.50000  0.85000  Biso   1.000  Cu
  Cu3440   1.0000 0.90000  0.55000  0.85000  Biso   1.000  Cu
  Cu3441   1.0000 0.00000  0.60000  0.80000  Biso   1.000  Cu
  Cu3442   1.0000 0.05000  0.65000  0.80000  Biso   1.000  Cu
  Cu3443   1.0000 0.05000  0.60000  0.85000  Biso   1.000  Cu
  Cu3444   1.0000 0.00000  0.65000  0.85000  Biso   1.000  Cu
  Cu3445   1.0000 0.10000  0.60000  0.80000  Biso   1.000  Cu
  Cu3446   1.0000 0.15000  0.65000  0.80000  Biso   1.000  Cu
  Cu3447   1.0000 0.15000  0.60000  0.85000  Biso   1.000  Cu
  Cu3448   1.0000 0.10000  0.65000  0.85000  Biso   1.000  Cu
  Cu3449   1.0000 0.20000  0.60000  0.80000  Biso   1.000  Cu
  Cu3450   1.0000 0.25000  0.65000  0.80000  Biso   1.000  Cu
  Cu3451   1.0000 0.25000  0.60000  0.85000  Biso   1.000  Cu
  Cu3452   1.0000 0.20000  0.65000  0.85000  Biso   1.000  Cu
  Cu3453   1.0000 0.30000  0.60000  0.80000  Biso   1.000  Cu
  Cu3454   1.0000 0.35000  0.65000  0.80000  Biso   1.000  Cu
  Cu3455   1.0000 0.35000  0.60000  0.85000  Biso   1.000  Cu
  Cu3456   1.0000 0.30000  0.65000  0.85000  Biso   1.000  Cu
  Cu3457   1.0000 0.40000  0.60000  0.80000  Biso   1.000  Cu
  Cu3458   1.0000 0.45000  0.65000  0.80000  Biso   1.000  Cu
  Cu3459   1.0000 0.45000  0.60000  0.85000  Biso   1.000  Cu
  Cu3460   1.0000 0.40000  0.65000  0.85000  Biso   1.000  Cu
  Cu3461   1.0000 0.50000  0.60000  0.80000  Biso   1.000  Cu
  Cu3462   1.0000 0.55000  0.65000  0.80000  Biso   1.000  Cu
  Cu3463   1.0000 0.55000  0.60000  0.85000  Biso   1.000  Cu
  Cu3464   1.0000 0.50000  0.65000  0.85000  Biso   1.000  Cu
  Cu3465   1.0000 0.60000  0.60000  0.80000  Biso   1.000  Cu
  Cu3466   1.0000 0.65000  0.65000  0.80000  Biso   1.000  Cu
  Cu3467   1.0000 0.65000  0.60000  0.85000  Biso   1.000  Cu
  Cu3468   1.0000 0.60000  0.65000  0.85000  Biso   1.000  Cu
  Cu3469   1.0000 0.70000  0.60000  0.80000  Biso   1.000  Cu
  Cu3470   1.0000 0.75000  0.65000  0.80000  Biso   1.000  Cu
  Cu3471   1.0000 0.75000  0.60000  0.85000  Biso   1.000  Cu
  Cu3472   1.0000 0.70000  0.65000  0.85000  Biso   1.000  Cu
  Cu3473   1.0000 0.80000  0.60000  0.80000  Biso   1.000  Cu
  Cu3474   1.0000 0.85000  0.65000  0.80000  Biso   1.000  Cu
  Cu3475   1.0000 0.85000  0.60000  0.85000  Biso   1.000  Cu
  Cu3476   1.0000 0.80000  0.65000  0.85000  Biso   1.000  Cu
  Cu3477   1.0000 0.90000  0.60000  0.80000  Biso   1.000  Cu
  Cu3478   1.0000 0.95000  0.65000  0.80000  Biso   1.000  Cu
  Cu3479   1.0000 0.95000  0.60000  0.85000  Biso   1.000  Cu
  Cu3480   1.0000 0.90000  0.65000  0.85000  Biso   1.000  Cu
  Cu3481   1.0000 0.00000  0.70000  0.80000  Biso   1.000  Cu
  Cu3482   1.0000 0.05000  0.75000  0.80000  Biso   1.000  Cu
  Cu3483   1.0000 0.05000  0.70000  0.85000  Biso   1.000  Cu
  Cu3484   1.0000 0.00000  0.75000  0.85000  Biso   1.000  Cu
  Cu3485   1.0000 0.10000  0.70000  0.80000  Biso   1.000  Cu
  Cu3486   1.0000 0.15000  0.75000  0.80000  Biso   1.000  Cu
  Cu3487   1.0000 0.15000  0.70000  0.85000  Biso   1.000  Cu
  Cu3488   1.0000 0.10000  0.75000  0.85000  Biso   1.000  Cu
  Cu3489   1.0000 0.20000  0.70000  0.80000  Biso   1.000  Cu
  Cu3490   1.0000 0.25000  0.75000  0.80000  Biso   1.000  Cu
  Cu3491   1.0000 0.25000  0.70000  0.85000  Biso   1.000  Cu
  Cu3492   1.0000 0.20000  0.75000  0.85000  Biso   1.000  Cu
  Cu3493   1.0000 0.30000  0.70000  0.80000  Biso   1.000  Cu
  Cu3494   1.0000 0.35000  0.75000  0.80000  Biso   1.000  Cu
  Cu3495   1.0000 0.35000  0.70000  0.85000  Biso   1.000  Cu
  Cu3496   1.0000 0.30000  0.75000  0.85000  Biso   1.000  Cu
  Cu3497   1.0000 0.40000  0.70000  0.80000  Biso   1.000  Cu
  Cu3498   1.0000 0.45000  0.75000  0.80000  Biso   1.000  Cu
  Cu3499   1.0000 0.45000  0.70000  0.85000  Biso   1.000  Cu
  Cu3500   1.0000 0.40000  0.75000  0.85000  Biso   1.000  Cu
  Cu3501   1.0000 0.50000  0.70000  0.80000  Biso   1.000  Cu
  Cu3502   1.0000 0.55000  0.75000  0.80000  Biso   1.000  Cu
  Cu3503   1.0000 0.55000  0.70000  0.85000  Biso   1.000  Cu
  Cu3504   1.0000 0.50000  0.75000  0.85000  Biso   1.000  Cu
  Cu3505   1.0000 0.60000  0.70000  0.80000  Biso   1.000  Cu
  Cu3506   1.0000 0.65000  0.75000  0.80000  Biso   1.000  Cu
  Cu3507   1.0000 0.65000  0.70000  0.85000  Biso   1.000  Cu
  Cu3508   1.0000 0.60000  0.75000  0.85000  Biso   1.000  Cu
  Cu3509   1.0000 0.70000  0.70000  0.80000  Biso   1.000  Cu
  Cu3510   1.0000 0.75000  0.75000  0.80000  Biso   1.000  Cu
  Cu3511   1.0000 0.75000  0.70000  0.85000  Biso   1.000  Cu
  Cu3512   1.0000 0.70000  0.75000  0.85000  Biso   1.000  Cu
  Cu3513   1.0000 0.80000  0.70000  0.80000  Biso   1.000  Cu
  Cu3514   1.0000 0.85000  0.75000  0.80000  Biso   1.000  Cu
  Cu3515   1.0000 0.85000  0.70000  0.85000  Biso   1.000  Cu
  Cu3516   1.0000 0.80000  0.75000  0.85000  Biso   1.000  Cu
  Cu3517   1.0000 0.90000  0.70000  0.80000  Biso   1.000  Cu
  Cu3518   1.0000 0.95000  0.75000  0.80000  Biso   1.000  Cu
  Cu3519   1.0000 0.95000  0.70000  0.85000  Biso   1.000  Cu
  Cu3520   1.0000 0.90000  0.75000  0.85000  Biso   1.000  Cu
  Cu3521   1.0000 0.00000  0.80000  0.80000  Biso   1.000  Cu
  Cu3522   1.0000 0.05000  0.85000  0.80000  Biso   1.000  Cu
  Cu3523   1.0000 0.05000  0.80000  0.85000  Biso   1.000  Cu
  Cu3524   1.0000 0.00000  0.85000  0.85000  Biso   1.000  Cu
  Cu3525   1.0000 0.10000  0.80000  0.80000  Biso   1.000  Cu
  Cu3526   1.0000 0.15000  0.85000  0.80000  Biso   1.000  Cu
  Cu3527   1.0000 0.15000  0.80000  0.85000  Biso   1.000  Cu
  Cu3528   1.0000 0.10000  0.85000  0.85000  Biso   1.000  Cu
  Cu3529   1.0000 0.20000  0.80000  0.80000  Biso   1.000  Cu
  Cu3530   1.0000 0.25000  0.85000  0.80000  Biso   1.000  Cu
  Cu3531   1.0000 0.25000  0.80000  0.85000  Biso   1.000  Cu
  Cu3532   1.0000 0.20000  0.85000  0.85000  Biso   1.000  Cu
  Cu3533   1.0000 0.30000  0.80000  0.80000  Biso   1.000  Cu
  Cu3534   1.0000 0.35000  0.85000  0.80000  Biso   1.000  Cu
  Cu3535   1.0000 0.35000  0.80000  0.85000  Biso   1.000  Cu
  Cu3536   1.0000 0.30000  0.85000  0.85000  Biso   1.000  Cu
  Cu3537   1.0000 0.40000  0.80000  0.80000  Biso   1.000  Cu
  Cu3538   1.0000 0.45000  0.85000  0.80000  Biso   1.000  Cu
  Cu3539   1.0000 0.45000  0.80000  0.85000  Biso   1.000  Cu
  Cu3540   1.0000 0.40000  0.85000  0.85000  Biso   1.000  Cu
  Cu3541   1.0000 0.50000  0.80000  0.80000  Biso   1.000  Cu
  Cu3542   1.0000 0.55000  0.85000  0.80000  Biso   1.000  Cu
  Cu3543   1.0000 0.55000  0.80000  0.85000  Biso   1.000  Cu
  Cu3544   1.0000 0.50000  0.85000  0.85000  Biso   1.000  Cu
  Cu3545   1.0000 0.60000  0.80000  0.80000  Biso   1.000  Cu
  Cu3546   1.0000 0.65000  0.85000  0.80000  Biso   1.000  Cu
  Cu3547   1.0000 0.65000  0.80000  0.85000  Biso   1.000  Cu
  Cu3548   1.0000 0.60000  0.85000  0.85000  Biso   1.000  Cu
  Cu3549   1.0000 0.70000  0.80000  0.80000  Biso   1.000  Cu
  Cu3550   1.0000 0.75000  0.85000  0.80000  Biso   1.000  Cu
  Cu3551   1.0000 0.75000  0.80000  0.85000  Biso   1.000  Cu
  Cu3552   1.0000 0.70000  0.85000  0.85000  Biso   1.000  Cu
  Cu3553   1.0000 0.80000  0.80000  0.80000  Biso   1.000  Cu
  Cu3554   1.0000 0.85000  0.85000  0.80000  Biso   1.000  Cu
  Cu3555   1.0000 0.85000  0.80000  0.85000  Biso   1.000  Cu
  Cu3556   1.0000 0.80000  0.85000  0.85000  Biso   1.000  Cu
  Cu3557   1.0000 0.90000  0.80000  0.80000  Biso   1.000  Cu
  Cu3558   1.0000 0.95000  0.85000  0.80000  Biso   1.000  Cu
  Cu3559   1.0000 0.95000  0.80000  0.85000  Biso   1.000  Cu
  Cu3560   1.0000 0.90000  0.85000  0.85000  Biso   1.000  Cu
  Cu3561   1.0000 0.00000  0.90000  0.80000  Biso   1.000  Cu
  Cu3562   1.0000 0.05000  0.95000  0.80000  Biso   1.000  Cu
  Cu3563   1.0000 0.05000  0.90000  0.85000  Biso   1.000  Cu
  Cu3564   1.0000 0.00000  0.95000  0.85000  Biso   1.000  Cu
  Cu3565   1.0000 0.10000  0.90000  0.80000  Biso   1.000  Cu
  Cu3566   1.0000 0.15000  0.95000  0.80000  Biso   1.000  Cu
  Cu3567   1.0000 0.15000  0.90000  0.85000  Biso   1.000  Cu
  Cu3568   1.0000 0.10000  0.95000  0.85000  Biso   1.000  Cu
  Cu3569   1.0000 0.20000  0.90000  0.80000  Biso   1.000  Cu
  Cu3570   1.0000 0.25000  0.95000  0.80000  Biso   1.000  Cu
  Cu3571   1.0000 0.25000  0.90000  0.85000  Biso   1.000  Cu
  Cu3572   1.0000 0.20000  0.95000  0.85000  Biso   1.000  Cu
  Cu3573   1.0000 0.30000  0.90000  0.80000  Biso   1.000  Cu
  Cu3574   1.0000 0.35000  0.95000  0.80000  Biso   1.000  Cu
  Cu3575   1.0000 0.35000  0.90000  0.85000  Biso   1.000  Cu
  Cu3576   1.0000 0.30000  0.95000  0.85000  Biso   1.000  Cu
  Cu3577   1.0000 0.40000  0.90000  0.80000  Biso   1.000  Cu
  Cu3578   1.0000 0.45000  0.95000  0.80000  Biso   1.000  Cu
  Cu3579   1.0000 0.45000  0.90000  0.85000  Biso   1.000  Cu
  Cu3580   1.0000 0.40000  0.95000  0.85000  Biso   1.000  Cu
  Cu3581   1.0000 0.50000  0.90000  0.80000  Biso   1.000  Cu
  Cu3582   1.0000 0.55000  0.95000  0.80000  Biso   1.000  Cu
  Cu3583   1.0000 0.55000  0.90000  0.85000  Biso   1.000  Cu
  Cu3584   1.0000 0.50000  0.95000  0.85000  Biso   1.000  Cu
  Cu3585   1.0000 0.60000  0.90000  0.80000  Biso   1.000  Cu
  Cu3586   1.0000 0.65000  0.95000  0.80000  Biso   1.000  Cu
  Cu3587   1.0000 0.65000  0.90000  0.85000  Biso   1.000  Cu
  Cu3588   1.0000 0.60000  0.95000  0.85000  Biso   1.000  Cu
  Cu3589   1.0000 0.70000  0.90000  0.80000  Biso   1.000  Cu
  Cu3590   1.0000 0.75000  0.95000  0.80000  Biso   1.000  Cu
  Cu3591   1.0000 0.75000  0.90000  0.85000  Biso   1.000  Cu
  Cu3592   1.0000 0.70000  0.95000  0.85000  Biso   1.000  Cu
  Cu3593   1.0000 0.80000  0.90000  0.80000  Biso   1.000  Cu
  Cu3594   1.0000 0.85000  0.95000  0.80000  Biso   1.000  Cu
  Cu3595   1.0000 0.85000  0.90000  0.85000  Biso   1.000  Cu
  Cu3596   1.0000 0.80000  0.95000  0.85000  Biso   1.000  Cu
  Cu3597   1.0000 0.90000  0.90000  0.80000  Biso   1.000  Cu
  Cu3598   1.0000 0.95000  0.95000  0.80000  Biso   1.000  Cu
  Cu3599   1.0000 0.95000  0.90000  0.85000  Biso   1.000  Cu
  Cu3600   1.0000 0.90000  0.95000  0.85000  Biso   1.000  Cu
  Cu3601   1.0000 0.00000  0.00000  0.90000  Biso   1.000  Cu
  Cu3602   1.0000 0.05000  0.05000  0.90000  Biso   1.000  Cu
  Cu3603   1.0000 0.05000  0.00000  0.95000  Biso   1.000  Cu
  Cu3604   1.0000 0.00000  0.05000  0.95000  Biso   1.000  Cu
  Cu3605   1.0000 0.10000  0.00000  0.90000  Biso   1.000  Cu
  Cu3606   1.0000 0.15000  0.05000  0.90000  Biso   1.000  Cu
  Cu3607   1.0000 0.15000  0.00000  0.95000  Biso   1.000  Cu
  Cu3608   1.0000 0.10000  0.05000  0.95000  Biso   1.000  Cu
  Cu3609   1.0000 0.20000  0.00000  0.90000  Biso   1.000  Cu
  Cu3610   1.0000 0.25000  0.05000  0.90000  Biso   1.000  Cu
  Cu3611   1.0000 0.25000  0.00000  0.95000  Biso   1.000  Cu
  Cu3612   1.0000 0.20000  0.05000  0.95000  Biso   1.000  Cu
  Cu3613   1.0000 0.30000  0.00000  0.90000  Biso   1.000  Cu
  Cu3614   1.0000 0.35000  0.05000  0.90000  Biso   1.000  Cu
  Cu3615   1.0000 0.35000  0.00000  0.95000  Biso   1.000  Cu
  Cu3616   1.0000 0.30000  0.05000  0.95000  Biso   1.000  Cu
  Cu3617   1.0000 0.40000  0.00000  0.90000  Biso   1.000  Cu
  Cu3618   1.0000 0.45000  0.05000  0.90000  Biso   1.000  Cu
  Cu3619   1.0000 0.45000  0.00000  0.95000  Biso   1.000  Cu
  Cu3620   1.0000 0.40000  0.05000  0.95000  Biso   1.000  Cu
  Cu3621   1.0000 0.50000  0.00000  0.90000  Biso   1.000  Cu
  Cu3622   1.0000 0.55000  0.05000  0.90000  Biso   1.000  Cu
  Cu3623   1.0000 0.55000  0.00000  0.95000  Biso   1.000  Cu
  Cu3624   1.0000 0.50000  0.05000  0.95000  Biso   1.000  Cu
  Cu3625   1.0000 0.60000  0.00000  0.90000  Biso   1.000  Cu
  Cu3626   1.0000 0.65000  0.05000  0.90000  Biso   1.000  Cu
  Cu3627   1.0000 0.65000  0.00000  0.95000  Biso   1.000  Cu
  Cu3628   1.0000 0.60000  0.05000  0.95000  Biso   1.000  Cu
  Cu3629   1.0000 0.70000  0.00000  0.90000  Biso   1.000  Cu
  Cu3630   1.0000 0.75000  0.05000  0.90000  Biso   1.000  Cu
  Cu3631   1.0000 0.75000  0.00000  0.95000  Biso   1.000  Cu
  Cu3632   1.0000 0.70000  0.05000  0.95000  Biso   1.000  Cu
  Cu3633   1.0000 0.80000  0.00000  0.90000  Biso   1.000  Cu
  Cu3634   1.0000 0.85000  0.05000  0.90000  Biso   1.000  Cu
  Cu3635   1.0000 0.85000  0.00000  0.95000  Biso   1.000  Cu
  Cu3636   1.0000 0.80000  0.05000  0.95000  Biso   1.000  Cu
  Cu3637   1.0000 0.90000  0.00000  0.90000  Biso   1.000  Cu
  Cu3638   1.0000 0.95000  0.05000  0.90000  Biso   1.000  Cu
  Cu3639   1.0000 0.95000  0.00000  0.95000  Biso   1.000  Cu
  Cu3640   1.0000 0.90000  0.05000  0.95000  Biso   1.000  Cu
  Cu3641   1.0000 0.00000  0.10000  0.90000  Biso   1.000  Cu
  Cu3642   1.0000 0.05000  0.15000  0.90000  Biso   1.000  Cu
  Cu3643   1.0000 0.05000  0.10000  0.95000  Biso   1.000  Cu
  Cu3644   1.0000 0.00000  0.15000  0.95000  Biso   1.000  Cu
  Cu3645   1.0000 0.10000  0.10000  0.90000  Biso   1.000  Cu
  Cu3646   1.0000 0.15000  0.15000  0.90000  Biso   1.000  Cu
  Cu3647   1.0000 0.15000  0.10000  0.95000  Biso   1.000  Cu
  Cu3648   1.0000 0.10000  0.15000  0.95000  Biso   1.000  Cu
  Cu3649   1.0000 0.20000  0.10000  0.90000  Biso   1.000  Cu
  Cu3650   1.0000 0.25000  0.15000  0.90000  Biso   1.000  Cu
  Cu3651   1.0000 0.25000  0.10000  0.95000  Biso   1.000  Cu
  Cu3652   1.0000 0.20000  0.15000  0.95000  Biso   1.000  Cu
  Cu3653   1.0000 0.30000  0.10000  0.90000  Biso   1.000  Cu
  Cu3654   1.0000 0.35000  0.15000  0.90000  Biso   1.000  Cu
  Cu3655   1.0000 0.35000  0.10000  0.95000  Biso   1.000  Cu
  Cu3656   1.0000 0.30000  0.15000  0.95000  Biso   1.000  Cu
  Cu3657   1.0000 0.40000  0.10000  0.90000  Biso   1.000  Cu
  Cu3658   1.0000 0.45000  0.15000  0.90000  Biso   1.000  Cu
  Cu3659   1.0000 0.45000  0.10000  0.95000  Biso   1.000  Cu
  Cu3660   1.0000 0.40000  0.15000  0.95000  Biso   1.000  Cu
  Cu3661   1.0000 0.50000  0.10000  0.90000  Biso   1.000  Cu
  Cu3662   1.0000 0.55000  0.15000  0.90000  Biso   1.000  Cu
  Cu3663   1.0000 0.55000  0.10000  0.95000  Biso   1.000  Cu
  Cu3664   1.0000 0.50000  0.15000  0.95000  Biso   1.000  Cu
  Cu3665   1.0000 0.60000  0.10000  0.90000  Biso   1.000  Cu
  Cu3666   1.0000 0.65000  0.15000  0.90000  Biso   1.000  Cu
  Cu3667   1.0000 0.65000  0.10000  0.95000  Biso   1.000  Cu
  Cu3668   1.0000 0.60000  0.15000  0.95000  Biso   1.000  Cu
  Cu3669   1.0000 0.70000  0.10000  0.90000  Biso   1.000  Cu
  Cu3670   1.0000 0.75000  0.15000  0.90000  Biso   1.000  Cu
  Cu3671   1.0000 0.75000  0.10000  0.95000  Biso   1.000  Cu
  Cu3672   1.0000 0.70000  0.15000  0.95000  Biso   1.000  Cu
  Cu3673   1.0000 0.80000  0.10000  0.90000  Biso   1.000  Cu
  Cu3674   1.0000 0.85000  0.15000  0.90000  Biso   1.000  Cu
  Cu3675   1.0000 0.85000  0.10000  0.95000  Biso   1.000  Cu
  Cu3676   1.0000 0.80000  0.15000  0.95000  Biso   1.000  Cu
  Cu3677   1.0000 0.90000  0.10000  0.90000  Biso   1.000  Cu
  Cu3678   1.0000 0.95000  0.15000  0.90000  Biso   1.000  Cu
  Cu3679   1.0000 0.95000  0.10000  0.95000  Biso   1.000  Cu
  Cu3680   1.0000 0.90000  0.15000  0.95000  Biso   1.000  Cu
  Cu3681   1.0000 0.00000  0.20000  0.90000  Biso   1.000  Cu
  Cu3682   1.0000 0.05000  0.25000  0.90000  Biso   1.000  Cu
  Cu3683   1.0000 0.05000  0.20000  0.95000  Biso   1.000  Cu
  Cu3684   1.0000 0.00000  0.25000  0.95000  Biso   1.000  Cu
  Cu3685   1.0000 0.10000  0.20000  0.90000  Biso   1.000  Cu
  Cu3686   1.0000 0.15000  0.25000  0.90000  Biso   1.000  Cu
  Cu3687   1.0000 0.15000  0.20000  0.95000  Biso   1.000  Cu
  Cu3688   1.0000 0.10000  0.25000  0.95000  Biso   1.000  Cu
  Cu3689   1.0000 0.20000  0.20000  0.90000  Biso   1.000  Cu
  Cu3690   1.0000 0.25000  0.25000  0.90000  Biso   1.000  Cu
  Cu3691   1.0000 0.25000  0.20000  0.95000  Biso   1.000  Cu
  Cu3692   1.0000 0.20000  0.25000  0.95000  Biso   1.000  Cu
  Cu3693   1.0000 0.30000  0.20000  0.90000  Biso   1.000  Cu
  Cu3694   1.0000 0.35000  0.25000  0.90000  Biso   1.000  Cu
  Cu3695   1.0000 0.35000  0.20000  0.95000  Biso   1.000  Cu
  Cu3696   1.0000 0.30000  0.25000  0.95000  Biso   1.000  Cu
  Cu3697   1.0000 0.40000  0.20000  0.90000  Biso   1.000  Cu
  Cu3698   1.0000 0.45000  0.25000  0.90000  Biso   1.000  Cu
  Cu3699   1.0000 0.45000  0.20000  0.95000  Biso   1.000  Cu
  Cu3700   1.0000 0.40000  0.25000  0.95000  Biso   1.000  Cu
  Cu3701   1.0000 0.50000  0.20000  0.90000  Biso   1.000  Cu
  Cu3702   1.0000 0.55000  0.25000  0.90000  Biso   1.000  Cu
  Cu3703   1.0000 0.55000  0.20000  0.95000  Biso   1.000  Cu
  Cu3704   1.0000 0.50000  0.25000  0.95000  Biso   1.000  Cu
  Cu3705   1.0000 0.60000  0.20000  0.90000  Biso   1.000  Cu
  Cu3706   1.0000 0.65000  0.25000  0.90000  Biso   1.000  Cu
  Cu3707   1.0000 0.65000  0.20000  0.95000  Biso   1.000  Cu
  Cu3708   1.0000 0.60000  0.25000  0.95000  Biso   1.000  Cu
  Cu3709   1.0000 0.70000  0.20000  0.90000  Biso   1.000  Cu
  Cu3710   1.0000 0.75000  0.25000  0.90000  Biso   1.000  Cu
  Cu3711   1.0000 0.75000  0.20000  0.95000  Biso   1.000  Cu
  Cu3712   1.0000 0.70000  0.25000  0.95000  Biso   1.000  Cu
  Cu3713   1.0000 0.80000  0.20000  0.90000  Biso   1.000  Cu
  Cu3714   1.0000 0.85000  0.25000  0.90000  Biso   1.000  Cu
  Cu3715   1.0000 0.85000  0.20000  0.95000  Biso   1.000  Cu
  Cu3716   1.0000 0.80000  0.25000  0.95000  Biso   1.000  Cu
  Cu3717   1.0000 0.90000  0.20000  0.90000  Biso   1.000  Cu
  Cu3718   1.0000 0.95000  0.25000  0.90000  Biso   1.000  Cu
  Cu3719   1.0000 0.95000  0.20000  0.95000  Biso   1.000  Cu
  Cu3720   1.0000 0.90000  0.25000  0.95000  Biso   1.000  Cu
  Cu3721   1.0000 0.00000  0.30000  0.90000  Biso   1.000  Cu
  Cu3722   1.0000 0.05000  0.35000  0.90000  Biso   1.000  Cu
  Cu3723   1.0000 0.05000  0.30000  0.95000  Biso   1.000  Cu
  Cu3724   1.0000 0.00000  0.35000  0.95000  Biso   1.000  Cu
  Cu3725   1.0000 0.10000  0.30000  0.90000  Biso   1.000  Cu
  Cu3726   1.0000 0.15000  0.35000  0.90000  Biso   1.000  Cu
  Cu3727   1.0000 0.15000  0.30000  0.95000  Biso   1.000  Cu
  Cu3728   1.0000 0.10000  0.35000  0.95000  Biso   1.000  Cu
  Cu3729   1.0000 0.20000  0.30000  0.90000  Biso   1.000  Cu
  Cu3730   1.0000 0.25000  0.35000  0.90000  Biso   1.000  Cu
  Cu3731   1.0000 0.25000  0.30000  0.95000  Biso   1.000  Cu
  Cu3732   1.0000 0.20000  0.35000  0.95000  Biso   1.000  Cu
  Cu3733   1.0000 0.30000  0.30000  0.90000  Biso   1.000  Cu
  Cu3734   1.0000 0.35000  0.35000  0.90000  Biso   1.000  Cu
  Cu3735   1.0000 0.35000  0.30000  0.95000  Biso   1.000  Cu
  Cu3736   1.0000 0.30000  0.35000  0.95000  Biso   1.000  Cu
  Cu3737   1.0000 0.40000  0.30000  0.90000  Biso   1.000  Cu
  Cu3738   1.0000 0.45000  0.35000  0.90000  Biso   1.000  Cu
  Cu3739   1.0000 0.45000  0.30000  0.95000  Biso   1.000  Cu
  Cu3740   1.0000 0.40000  0.35000  0.95000  Biso   1.000  Cu
  Cu3741   1.0000 0.50000  0.30000  0.90000  Biso   1.000  Cu
  Cu3742   1.0000 0.55000  0.35000  0.90000  Biso   1.000  Cu
  Cu3743   1.0000 0.55000  0.30000  0.95000  Biso   1.000  Cu
  Cu3744   1.0000 0.50000  0.35000  0.95000  Biso   1.000  Cu
  Cu3745   1.0000 0.60000  0.30000  0.90000  Biso   1.000  Cu
  Cu3746   1.0000 0.65000  0.35000  0.90000  Biso   1.000  Cu
  Cu3747   1.0000 0.65000  0.30000  0.95000  Biso   1.000  Cu
  Cu3748   1.0000 0.60000  0.35000  0.95000  Biso   1.000  Cu
  Cu3749   1.0000 0.70000  0.30000  0.90000  Biso   1.000  Cu
  Cu3750   1.0000 0.75000  0.35000  0.90000  Biso   1.000  Cu
  Cu3751   1.0000 0.75000  0.30000  0.95000  Biso   1.000  Cu
  Cu3752   1.0000 0.70000  0.35000  0.95000  Biso   1.000  Cu
  Cu3753   1.0000 0.80000  0.30000  0.90000  Biso   1.000  Cu
  Cu3754   1.0000 0.85000  0.35000  0.90000  Biso   1.000  Cu
  Cu3755   1.0000 0.85000  0.30000  0.95000  Biso   1.000  Cu
  Cu3756   1.0000 0.80000  0.35000  0.95000  Biso   1.000  Cu
  Cu3757   1.0000 0.90000  0.30000  0.90000  Biso   1.000  Cu
  Cu3758   1.0000 0.95000  0.35000  0.90000  Biso   1.000  Cu
  Cu3759   1.0000 0.95000  0.30000  0.95000  Biso   1.000  Cu
  Cu3760   1.0000 0.90000  0.35000  0.95000  Biso   1.000  Cu
  Cu3761   1.0000 0.00000  0.40000  0.90000  Biso   1.000  Cu
  Cu3762   1.0000 0.05000  0.45000  0.90000  Biso   1.000  Cu
  Cu3763   1.0000 0.05000  0.40000  0.95000  Biso   1.000  Cu
  Cu3764   1.0000 0.00000  0.45000  0.95000  Biso   1.000  Cu
  Cu3765   1.0000 0.10000  0.40000  0.90000  Biso   1.000  Cu
  Cu3766   1.0000 0.15000  0.45000  0.90000  Biso   1.000  Cu
  Cu3767   1.0000 0.15000  0.40000  0.95000  Biso   1.000  Cu
  Cu3768   1.0000 0.10000  0.45000  0.95000  Biso   1.000  Cu
  Cu3769   1.0000 0.20000  0.40000  0.90000  Biso   1.000  Cu
  Cu3770   1.0000 0.25000  0.45000  0.90000  Biso   1.000  Cu
  Cu3771   1.0000 0.25000  0.40000  0.95000  Biso   1.000  Cu
  Cu3772   1.0000 0.20000  0.45000  0.95000  Biso   1.000  Cu
  Cu3773   1.0000 0.30000  0.40000  0.90000  Biso   1.000  Cu
  Cu3774   1.0000 0.35000  0.45000  0.90000  Biso   1.000  Cu
  Cu3775   1.0000 0.35000  0.40000  0.95000  Biso   1.000  Cu
  Cu3776   1.0000 0.30000  0.45000  0.95000  Biso   1.000  Cu
  Cu3777   1.0000 0.40000  0.40000  0.90000  Biso   1.000  Cu
  Cu3778   1.0000 0.45000  0.45000  0.90000  Biso   1.000  Cu
  Cu3779   1.0000 0.45000  0.40000  0.95000  Biso   1.000  Cu
  Cu3780   1.0000 0.40000  0.45000  0.95000  Biso   1.000  Cu
  Cu3781   1.0000 0.50000  0.40000  0.90000  Biso   1.000  Cu
  Cu3782   1.0000 0.55000  0.45000  0.90000  Biso   1.000  Cu
  Cu3783   1.0000 0.55000  0.40000  0.95000  Biso   1.000  Cu
  Cu3784   1.0000 0.50000  0.45000  0.95000  Biso   1.000  Cu
  Cu3785   1.0000 0.60000  0.40000  0.90000  Biso   1.000  Cu
  Cu3786   1.0000 0.65000  0.45000  0.90000  Biso   1.000  Cu
  Cu3787   1.0000 0.65000  0.40000  0.95000  Biso   1.000  Cu
  Cu3788   1.0000 0.60000  0.45000  0.95000  Biso   1.000  Cu
  Cu3789   1.0000 0.70000  0.40000  0.90000  Biso   1.000  Cu
  Cu3790   1.0000 0.75000  0.45000  0.90000  Biso   1.000  Cu
  Cu3791   1.0000 0.75000  0.40000  0.95000  Biso   1.000  Cu
  Cu3792   1.0000 0.70000  0.45000  0.95000  Biso   1.000  Cu
  Cu3793   1.0000 0.80000  0.40000  0.90000  Biso   1.000  Cu
  Cu3794   1.0000 0.85000  0.45000  0.90000  Biso   1.000  Cu
  Cu3795   1.0000 0.85000  0.40000  0.95000  Biso   1.000  Cu
  Cu3796   1.0000 0.80000  0.45000  0.95000  Biso   1.000  Cu
  Cu3797   1.0000 0.90000  0.40000  0.90000  Biso   1.000  Cu
  Cu3798   1.0000 0.95000  0.45000  0.90000  Biso   1.000  Cu
  Cu3799   1.0000 0.95000  0.40000  0.95000  Biso   1.000  Cu
  Cu3800   1.0000 0.90000  0.45000  0.95000  Biso   1.000  Cu
  Cu3801   1.0000 0.00000  0.50000  0.90000  Biso   1.000  Cu
  Cu3802   1.0000 0.05000  0.55000  0.90000  Biso   1.000  Cu
  Cu3803   1.0000 0.05000  0.50000  0.95000  Biso   1.000  Cu
  Cu3804   1.0000 0.00000  0.55000  0.95000  Biso   1.000  Cu
  Cu3805   1.0000 0.10000  0.50000  0.90000  Biso   1.000  Cu
  Cu3806   1.0000 0.15000  0.55000  0.90000  Biso   1.000  Cu
  Cu3807   1.0000 0.15000  0.50000  0.95000  Biso   1.000  Cu
  Cu3808   1.0000 0.10000  0.55000  0.95000  Biso   1.000  Cu
  Cu3809   1.0000 0.20000  0.50000  0.90000  Biso   1.000  Cu
  Cu3810   1.0000 0.25000  0.55000  0.90000  Biso   1.000  Cu
  Cu3811   1.0000 0.25000  0.50000  0.95000  Biso   1.000  Cu
  Cu3812   1.0000 0.20000  0.55000  0.95000  Biso   1.000  Cu
  Cu3813   1.0000 0.30000  0.50000  0.90000  Biso   1.000  Cu
  Cu3814   1.0000 0.35000  0.55000  0.90000  Biso   1.000  Cu
  Cu3815   1.0000 0.35000  0.50000  0.95000  Biso   1.000  Cu
  Cu3816   1.0000 0.30000  0.55000  0.95000  Biso   1.000  Cu
  Cu3817   1.0000 0.40000  0.50000  0.90000  Biso   1.000  Cu
  Cu3818   1.0000 0.45000  0.55000  0.90000  Biso   1.000  Cu
  Cu3819   1.0000 0.45000  0.50000  0.95000  Biso   1.000  Cu
  Cu3820   1.0000 0.40000  0.55000  0.95000  Biso   1.000  Cu
  Cu3821   1.0000 0.50000  0.50000  0.90000  Biso   1.000  Cu
  Cu3822   1.0000 0.55000  0.55000  0.90000  Biso   1.000  Cu
  Cu3823   1.0000 0.55000  0.50000  0.95000  Biso   1.000  Cu
  Cu3824   1.0000 0.50000  0.55000  0.95000  Biso   1.000  Cu
  Cu3825   1.0000 0.60000  0.50000  0.90000  Biso   1.000  Cu
  Cu3826   1.0000 0.65000  0.55000  0.90000  Biso   1.000  Cu
  Cu3827   1.0000 0.65000  0.50000  0.95000  Biso   1.000  Cu
  Cu3828   1.0000 0.60000  0.55000  0.95000  Biso   1.000  Cu
  Cu3829   1.0000 0.70000  0.50000  0.90000  Biso   1.000  Cu
  Cu3830   1.0000 0.75000  0.55000  0.90000  Biso   1.000  Cu
  Cu3831   1.0000 0.75000  0.50000  0.95000  Biso   1.000  Cu
  Cu3832   1.0000 0.70000  0.55000  0.95000  Biso   1.000  Cu
  Cu3833   1.0000 0.80000  0.50000  0.90000  Biso   1.000  Cu
  Cu3834   1.0000 0.85000  0.55000  0.90000  Biso   1.000  Cu
  Cu3835   1.0000 0.85000  0.50000  0.95000  Biso   1.000  Cu
  Cu3836   1.0000 0.80000  0.55000  0.95000  Biso   1.000  Cu
  Cu3837   1.0000 0.90000  0.50000  0.90000  Biso   1.000  Cu
  Cu3838   1.0000 0.95000  0.55000  0.90000  Biso   1.000  Cu
  Cu3839   1.0000 0.95000  0.50000  0.95000  Biso   1.000  Cu
  Cu3840   1.0000 0.90000  0.55000  0.95000  Biso   1.000  Cu
  Cu3841   1.0000 0.00000  0.60000  0.90000  Biso   1.000  Cu
  Cu3842   1.0000 0.05000  0.65000  0.90000  Biso   1.000  Cu
  Cu3843   1.0000 0.05000  0.60000  0.95000  Biso   1.000  Cu
  Cu3844   1.0000 0.00000  0.65000  0.95000  Biso   1.000  Cu
  Cu3845   1.0000 0.10000  0.60000  0.90000  Biso   1.000  Cu
  Cu3846   1.0000 0.15000  0.65000  0.90000  Biso   1.000  Cu
  Cu3847   1.0000 0.15000  0.60000  0.95000  Biso   1.000  Cu
  Cu3848   1.0000 0.10000  0.65000  0.95000  Biso   1.000  Cu
  Cu3849   1.0000 0.20000  0.60000  0.90000  Biso   1.000  Cu
  Cu3850   1.0000 0.25000  0.65000  0.90000  Biso   1.000  Cu
  Cu3851   1.0000 0.25000  0.60000  0.95000  Biso   1.000  Cu
  Cu3852   1.0000 0.20000  0.65000  0.95000  Biso   1.000  Cu
  Cu3853   1.0000 0.30000  0.60000  0.90000  Biso   1.000  Cu
  Cu3854   1.0000 0.35000  0.65000  0.90000  Biso   1.000  Cu
  Cu3855   1.0000 0.35000  0.60000  0.95000  Biso   1.000  Cu
  Cu3856   1.0000 0.30000  0.65000  0.95000  Biso   1.000  Cu
  Cu3857   1.0000 0.40000  0.60000  0.90000  Biso   1.000  Cu
  Cu3858   1.0000 0.45000  0.65000  0.90000  Biso   1.000  Cu
  Cu3859   1.0000 0.45000  0.60000  0.95000  Biso   1.000  Cu
  Cu3860   1.0000 0.40000  0.65000  0.95000  Biso   1.000  Cu
  Cu3861   1.0000 0.50000  0.60000  0.90000  Biso   1.000  Cu
  Cu3862   1.0000 0.55000  0.65000  0.90000  Biso   1.000  Cu
  Cu3863   1.0000 0.55000  0.60000  0.95000  Biso   1.000  Cu
  Cu3864   1.0000 0.50000  0.65000  0.95000  Biso   1.000  Cu
  Cu3865   1.0000 0.60000  0.60000  0.90000  Biso   1.000  Cu
  Cu3866   1.0000 0.65000  0.65000  0.90000  Biso   1.000  Cu
  Cu3867   1.0000 0.65000  0.60000  0.95000  Biso   1.000  Cu
  Cu3868   1.0000 0.60000  0.65000  0.95000  Biso   1.000  Cu
  Cu3869   1.0000 0.70000  0.60000  0.90000  Biso   1.000  Cu
  Cu3870   1.0000 0.75000  0.65000  0.90000  Biso   1.000  Cu
  Cu3871   1.0000 0.75000  0.60000  0.95000  Biso   1.000  Cu
  Cu3872   1.0000 0.70000  0.65000  0.95000  Biso   1.000  Cu
  Cu3873   1.0000 0.80000  0.60000  0.90000  Biso   1.000  Cu
  Cu3874   1.0000 0.85000  0.65000  0.90000  Biso   1.000  Cu
  Cu3875   1.0000 0.85000  0.60000  0.95000  Biso   1.000  Cu
  Cu3876   1.0000 0.80000  0.65000  0.95000  Biso   1.000  Cu
  Cu3877   1.0000 0.90000  0.60000  0.90000  Biso   1.000  Cu
  Cu3878   1.0000 0.95000  0.65000  0.90000  Biso   1.000  Cu
  Cu3879   1.0000 0.95000  0.60000  0.95000  Biso   1.000  Cu
  Cu3880   1.0000 0.90000  0.65000  0.95000  Biso   1.000  Cu
  Cu3881   1.0000 0.00000  0.70000  0.90000  Biso   1.000  Cu
  Cu3882   1.0000 0.05000  0.75000  0.90000  Biso   1.000  Cu
  Cu3883   1.0000 0.05000  0.70000  0.95000  Biso   1.000  Cu
  Cu3884   1.0000 0.00000  0.75000  0.95000  Biso   1.000  Cu
  Cu3885   1.0000 0.10000  0.70000  0.90000  Biso   1.000  Cu
  Cu3886   1.0000 0.15000  0.75000  0.90000  Biso   1.000  Cu
  Cu3887   1.0000 0.15000  0.70000  0.95000  Biso   1.000  Cu
  Cu3888   1.0000 0.10000  0.75000  0.95000  Biso   1.000  Cu
  Cu3889   1.0000 0.20000  0.70000  0.90000  Biso   1.000  Cu
  Cu3890   1.0000 0.25000  0.75000  0.90000  Biso   1.000  Cu
  Cu3891   1.0000 0.25000  0.70000  0.95000  Biso   1.000  Cu
  Cu3892   1.0000 0.20000  0.75000  0.95000  Biso   1.000  Cu
  Cu3893   1.0000 0.30000  0.70000  0.90000  Biso   1.000  Cu
  Cu3894   1.0000 0.35000  0.75000  0.90000  Biso   1.000  Cu
  Cu3895   1.0000 0.35000  0.70000  0.95000  Biso   1.000  Cu
  Cu3896   1.0000 0.30000  0.75000  0.95000  Biso   1.000  Cu
  Cu3897   1.0000 0.40000  0.70000  0.90000  Biso   1.000  Cu
  Cu3898   1.0000 0.45000  0.75000  0.90000  Biso   1.000  Cu
  Cu3899   1.0000 0.45000  0.70000  0.95000  Biso   1.000  Cu
  Cu3900   1.0000 0.40000  0.75000  0.95000  Biso   1.000  Cu
  Cu3901   1.0000 0.50000  0.70000  0.90000  Biso   1.000  Cu
  Cu3902   1.0000 0.55000  0.75000  0.90000  Biso   1.000  Cu
  Cu3903   1.0000 0.55000  0.70000  0.95000  Biso   1.000  Cu
  Cu3904   1.0000 0.50000  0.75000  0.95000  Biso   1.000  Cu
  Cu3905   1.0000 0.60000  0.70000  0.90000  Biso   1.000  Cu
  Cu3906   1.0000 0.65000  0.75000  0.90000  Biso   1.000  Cu
  Cu3907   1.0000 0.65000  0.70000  0.95000  Biso   1.000  Cu
  Cu3908   1.0000 0.60000  0.75000  0.95000  Biso   1.000  Cu
  Cu3909   1.0000 0.70000  0.70000  0.90000  Biso   1.000  Cu
  Cu3910   1.0000 0.75000  0.75000  0.90000  Biso   1.000  Cu
  Cu3911   1.0000 0.75000  0.70000  0.95000  Biso   1.000  Cu
  Cu3912   1.0000 0.70000  0.75000  0.95000  Biso   1.000  Cu
  Cu3913   1.0000 0.80000  0.70000  0.90000  Biso   1.000  Cu
  Cu3914   1.0000 0.85000  0.75000  0.90000  Biso   1.000  Cu
  Cu3915   1.0000 0.85000  0.70000  0.95000  Biso   1.000  Cu
  Cu3916   1.0000 0.80000  0.75000  0.95000  Biso   1.000  Cu
  Cu3917   1.0000 0.90000  0.70000  0.90000  Biso   1.000  Cu
  Cu3918   1.0000 0.95000  0.75000  0.90000  Biso   1.000  Cu
  Cu3919   1.0000 0.95000  0.70000  0.95000  Biso   1.000  Cu
  Cu3920   1.0000 0.90000  0.75000  0.95000  Biso   1.000  Cu
  Cu3921   1.0000 0.00000  0.80000  0.90000  Biso   1.000  Cu
  Cu3922   1.0000 0.05000  0.85000  0.90000  Biso   1.000  Cu
  Cu3923   1.0000 0.05000  0.80000  0.95000  Biso   1.000  Cu
  Cu3924   1.0000 0.00000  0.85000  0.95000  Biso   1.000  Cu
  Cu3925   1.0000 0.10000  0.80000  0.90000  Biso   1.000  Cu
  Cu3926   1.0000 0.15000  0.85000  0.90000  Biso   1.000  Cu
  Cu3927   1.0000 0.15000  0.80000  0.95000  Biso   1.000  Cu
  Cu3928   1.0000 0.10000  0.85000  0.95000  Biso   1.000  Cu
  Cu3929   1.0000 0.20000  0.80000  0.90000  Biso   1.000  Cu
  Cu3930   1.0000 0.25000  0.85000  0.90000  Biso   1.000  Cu
  Cu3931   1.0000 0.25000  0.80000  0.95000  Biso   1.000  Cu
  Cu3932   1.0000 0.20000  0.85000  0.95000  Biso   1.000  Cu
  Cu3933   1.0000 0.30000  0.80000  0.90000  Biso   1.000  Cu
  Cu3934   1.0000 0.35000  0.85000  0.90000  Biso   1.000  Cu
  Cu3935   1.0000 0.35000  0.80000  0.95000  Biso   1.000  Cu
  Cu3936   1.0000 0.30000  0.85000  0.95000  Biso   1.000  Cu
  Cu3937   1.0000 0.40000  0.80000  0.90000  Biso   1.000  Cu
  Cu3938   1.0000 0.45000  0.85000  0.90000  Biso   1.000  Cu
  Cu3939   1.0000 0.45000  0.80000  0.95000  Biso   1.000  Cu
  Cu3940   1.0000 0.40000  0.85000  0.95000  Biso   1.000  Cu
  Cu3941   1.0000 0.50000  0.80000  0.90000  Biso   1.000  Cu
  Cu3942   1.0000 0.55000  0.85000  0.90000  Biso   1.000  Cu
  Cu3943   1.0000 0.55000  0.80000  0.95000  Biso   1.000  Cu
  Cu3944   1.0000 0.50000  0.85000  0.95000  Biso   1.000  Cu
  Cu3945   1.0000 0.60000  0.80000  0.90000  Biso   1.000  Cu
  Cu3946   1.0000 0.65000  0.85000  0.90000  Biso   1.000  Cu
  Cu3947   1.0000 0.65000  0.80000  0.95000  Biso   1.000  Cu
  Cu3948   1.0000 0.60000  0.85000  0.95000  Biso   1.000  Cu
  Cu3949   1.0000 0.70000  0.80000  0.90000  Biso   1.000  Cu
  Cu3950   1.0000 0.75000  0.85000  0.90000  Biso   1.000  Cu
  Cu3951   1.0000 0.75000  0.80000  0.95000  Biso   1.000  Cu
  Cu3952   1.0000 0.70000  0.85000  0.95000  Biso   1.000  Cu
  Cu3953   1.0000 0.80000  0.80000  0.90000  Biso   1.000  Cu
  Cu3954   1.0000 0.85000  0.85000  0.90000  Biso   1.000  Cu
  Cu3955   1.0000 0.85000  0.80000  0.95000  Biso   1.000  Cu
  Cu3956   1.0000 0.80000  0.85000  0.95000  Biso   1.000  Cu
  Cu3957   1.0000 0.90000  0.80000  0.90000  Biso   1.000  Cu
  Cu3958   1.0000 0.95000  0.85000  0.90000  Biso   1.000  Cu
  Cu3959   1.0000 0.95000  0.80000  0.95000  Biso   1.000  Cu
  Cu3960   1.0000 0.90000  0.85000  0.95000  Biso   1.000  Cu
  Cu3961   1.0000 0.00000  0.90000  0.90000  Biso   1.000  Cu
  Cu3962   1.0000 0.05000  0.95000  0.90000  Biso   1.000  Cu
  Cu3963   1.0000 0.05000  0.90000  0.95000  Biso   1.000  Cu
  Cu3964   1.0000 0.00000  0.95000  0.95000  Biso   1.000  Cu
  Cu3965   1.0000 0.10000  0.90000  0.90000  Biso   1.000  Cu
  Cu3966   1.0000 0.15000  0.95000  0.90000  Biso   1.000  Cu
  Cu3967   1.0000 0.15000  0.90000  0.95000  Biso   1.000  Cu
  Cu3968   1.0000 0.10000  0.95000  0.95000  Biso   1.000  Cu
  Cu3969   1.0000 0.20000  0.90000  0.90000  Biso   1.000  Cu
  Cu3970   1.0000 0.25000  0.95000  0.90000  Biso   1.000  Cu
  Cu3971   1.0000 0.25000  0.90000  0.95000  Biso   1.000  Cu
  Cu3972   1.0000 0.20000  0.95000  0.95000  Biso   1.000  Cu
  Cu3973   1.0000 0.30000  0.90000  0.90000  Biso   1.000  Cu
  Cu3974   1.0000 0.35000  0.95000  0.90000  Biso   1.000  Cu
  Cu3975   1.0000 0.35000  0.90000  0.95000  Biso   1.000  Cu
  Cu3976   1.0000 0.30000  0.95000  0.95000  Biso   1.000  Cu
  Cu3977   1.0000 0.40000  0.90000  0.90000  Biso   1.000  Cu
  Cu3978   1.0000 0.45000  0.95000  0.90000  Biso   1.000  Cu
  Cu3979   1.0000 0.45000  0.90000  0.95000  Biso   1.000  Cu
  Cu3980   1.0000 0.40000  0.95000  0.95000  Biso   1.000  Cu
  Cu3981   1.0000 0.50000  0.90000  0.90000  Biso   1.000  Cu
  Cu3982   1.0000 0.55000  0.95000  0.90000  Biso   1.000  Cu
  Cu3983   1.0000 0.55000  0.90000  0.95000  Biso   1.000  Cu
  Cu3984   1.0000 0.50000  0.95000  0.95000  Biso   1.000  Cu
  Cu3985   1.0000 0.60000  0.90000  0.90000  Biso   1.000  Cu
  Cu3986   1.0000 0.65000  0.95000  0.90000  Biso   1.000  Cu
  Cu3987   1.0000 0.65000  0.90000  0.95000  Biso   1.000  Cu
  Cu3988   1.0000 0.60000  0.95000  0.95000  Biso   1.000  Cu
  Cu3989   1.0000 0.70000  0.90000  0.90000  Biso   1.000  Cu
  Cu3990   1.0000 0.75000  0.95000  0.90000  Biso   1.000  Cu
  Cu3991   1.0000 0.75000  0.90000  0.95000  Biso   1.000  Cu
  Cu3992   1.0000 0.70000  0.95000  0.95000  Biso   1.000  Cu
  Cu3993   1.0000 0.80000  0.90000  0.90000  Biso   1.000  Cu
  Cu3994   1.0000 0.85000  0.95000  0.90000  Biso   1.000  Cu
  Cu3995   1.0000 0.85000  0.90000  0.95000  Biso   1.000  Cu
  Cu3996   1.0000 0.80000  0.95000  0.95000  Biso   1.000  Cu
  Cu3997   1.0000 0.90000  0.90000  0.90000  Biso   1.000  Cu
  Cu3998   1.0000 0.95000  0.95000  0.90000  Biso   1.000  Cu
  Cu3999   1.0000 0.95000  0.90000  0.95000  Biso   1.000  Cu
  Cu4000   1.0000 0.90000  0.95000  0.95000  Biso   1.000  Cu
